#
# Generated by PyRED version NOV-2014
#     http://q4md-forcefieldtools.org
#
@<TRIPOS>MOLECULE
ST 
    1     0     0     0     0
SMALL
USER_CHARGES
@<TRIPOS>ATOM
   1  ST   -3.426233   7.571441   3.054962   ST   1   ST   0.0000   0.0000 ****
@<TRIPOS>BOND
@<TRIPOS>SUBSTRUCTURE
      1 S                1 ****               0 ****  ****
@<TRIPOS>HEADTAIL
0 0
ST 1
@<TRIPOS>RESIDUECONNECT
1 ST 0 0 0 0 0
