@<TRIPOS>MOLECULE
generated by VMD
    7    6    1    0    0
SMALL
NO_CHARGES
****
Energy = 0

@<TRIPOS>ATOM
      1  A1        -2.0284    0.8775    1.7602   AS    1  STC         0.000000
      2  A2        -2.9384    3.6675    0.6702   AL    1  STC         0.000000
      3  A3        -0.7884    4.2375   -2.1498   AL    1  STC         0.000000
      4  A4         0.6916    1.5075   -2.2798   AS    1  STC         0.000000
      5  S1        -3.7684    2.3075    2.3202   S     1  STC         0.000000
      6  S2        -2.2284    5.3475   -0.7198   S     1  STC         0.000000
      7  S3         0.8916    3.4675   -3.5298   S     1  STC         0.000000

@<TRIPOS>BOND
      1     1   5   1
      2     5   2   1
      3     2   6   1
      4     6   3   1
      5     3   7   1
      6     7   4   1

@<TRIPOS>SUBSTRUCTURE
1 ****        1 TEMP                        0 ****  **** 0 ROOT
