@<TRIPOS>MOLECULE
generated by VMD
    5    4    1    0    0
SMALL
NO_CHARGES
****
Energy = 0

@<TRIPOS>ATOM
      1  A1         2.5747   -4.9074    4.2102  AS    1   STR         0.000000
      2  A2         0.3847   -6.3374    6.1502  AL    1   STR         0.000000
      3  A3        -2.0453   -4.5574    4.8602  AS    1   STR         0.000000
      4  S1         2.4147   -7.0074    5.2902   S    1   STR         0.000000
      5  S2        -1.7653   -5.8374    6.8402   S    1   STR         0.000000

@<TRIPOS>BOND
      1     1   4   1
      2     4   2   1
      3     2   5   1
      4     5   3   1

@<TRIPOS>SUBSTRUCTURE
1 ****        1 TEMP                        0 ****  **** 0 ROOT
