@<TRIPOS>MOLECULE
L3F
	34	33	1
SMALL
USER_CHARGES
@<TRIPOS>ATOM
   1   C1       -7.5415   -0.5960    0.0000   CT 1 L3F -0.0156
   2   H1       -7.5126   -1.2485    0.8703   HC 1 L3F -0.0041
   3  H20       -7.5126   -1.2486   -0.8702   HC 1 L3F -0.0041
   4   C2       -6.3034    0.3026   -0.0000   CT 1 L3F  0.0582
   5   H2       -6.3355    0.9561    0.8706   HC 1 L3F -0.0001
   6   H3       -6.3355    0.9560   -0.8707   HC 1 L3F -0.0001
   7   C3       -4.9867   -0.4763    0.0000   CT 1 L3F  0.0549
   8   H4       -4.9563   -1.1297   -0.8705   HC 1 L3F -0.0305
   9   H5       -4.9563   -1.1296    0.8706   HC 1 L3F -0.0305
  10   C4       -3.7488    0.4229   -0.0000   CT 1 L3F  0.0074
  11   H6       -3.7801    1.0763    0.8706   HC 1 L3F -0.0497
  12   H7       -3.7801    1.0763   -0.8707   HC 1 L3F -0.0497
  13   C5       -2.4319   -0.3560    0.0000   CT 1 L3F  0.1124
  14   H8       -2.4016   -1.0096   -0.8704   HC 1 L3F -0.0268
  15   H9       -2.4016   -1.0095    0.8705   HC 1 L3F -0.0268
  16   C6       -1.1933    0.5424   -0.0000   CT 1 L3F  0.0451
  17  H10       -1.2250    1.1961    0.8706   HC 1 L3F -0.0127
  18  H11       -1.2250    1.1960   -0.8707   HC 1 L3F -0.0127
  19   C7        0.1238   -0.2363    0.0000   CT 1 L3F -0.0247
  20  H12        0.1548   -0.8899   -0.8703   HC 1 L3F -0.0262
  21  H13        0.1548   -0.8898    0.8703   HC 1 L3F -0.0262
  22   C8        1.3636    0.6605   -0.0000   CT 1 L3F  0.0390
  23  H14        1.3313    1.3144    0.8710   HC 1 L3F -0.0245
  24  H15        1.3313    1.3143   -0.8711   HC 1 L3F -0.0245
  25   C9        2.6760   -0.1271    0.0000   CT 1 L3F  0.0962
  26  H16        2.7187   -0.7729   -0.8712   HC 1 L3F  0.0111
  27  H17        2.7187   -0.7728    0.8713   HC 1 L3F  0.0111
  28  C10        3.9050    0.7754   -0.0000   CT 1 L3F -0.2526
  29  H18        3.9191    1.4135    0.8774   H1 1 L3F  0.0621
  30  H19        3.9191    1.4135   -0.8775   H1 1 L3F  0.0621
  31   S1        5.4532   -0.1305    0.0000    S 1 L3F  1.1832
  32   O1        5.4170   -0.9242    1.2200    O 1 L3F -0.7005
  33   O2        5.4170   -0.9243   -1.2199    O 1 L3F -0.7005
  34   O3        6.4698    0.9094   -0.0000    O 1 L3F -0.7005
@<TRIPOS>BOND
    1     1     2  1
    2     1     3  1
    3     1     4  1
    4     4     5  1
    5     4     6  1
    6     4     7  1
    7     7     8  1
    8     7     9  1
    9     7    10  1
   10    10    11  1
   11    10    12  1
   12    10    13  1
   13    13    14  1
   14    13    15  1
   15    13    16  1
   16    16    17  1
   17    16    18  1
   18    16    19  1
   19    19    20  1
   20    19    21  1
   21    19    22  1
   22    22    23  1
   23    22    24  1
   24    22    25  1
   25    25    26  1
   26    25    27  1
   27    25    28  1
   28    28    29  1
   29    28    30  1
   30    28    31  1
   31    31    32  1
   32    31    33  1
   33    31    34  1
@<TRIPOS>SUBSTRUCTURE
	1 L3F			1 ****			0 ****  ****
@<TRIPOS>RESIDUECONNECT
1 C1 0 0 0 0 0
