@<TRIPOS>MOLECULE
L2F
	39	38	1
SMALL
USER_CHARGES
@<TRIPOS>ATOM
   1   C1       -7.1482    0.0940   -0.2365   CT 1 L2F  0.0320
   2   H1       -7.3053   -0.9336    0.0843   HC 1 L2F -0.0002
   3   H2       -7.1602    0.0790   -1.3242   HC 1 L2F -0.0002
   4   C2       -5.7778    0.5711    0.2478   CT 1 L2F  0.0064
   5   H3       -5.7677    0.5867    1.3364   HC 1 L2F -0.0002
   6   H4       -5.6225    1.6001   -0.0726   HC 1 L2F -0.0002
   7   C3       -4.6228   -0.2959   -0.2565   CT 1 L2F  0.0010
   8   H5       -4.6331   -0.3113   -1.3450   HC 1 L2F -0.0044
   9   H6       -4.7785   -1.3245    0.0639   HC 1 L2F -0.0044
  10   C4       -3.2531    0.1821    0.2290   CT 1 L2F  0.0208
  11   H7       -3.2419    0.1968    1.3174   HC 1 L2F -0.0073
  12   H8       -3.0965    1.2108   -0.0914   HC 1 L2F -0.0073
  13   C5       -2.0988   -0.6857   -0.2761   CT 1 L2F  0.0158
  14   H9       -2.1079   -0.7002   -1.3644   HC 1 L2F -0.0021
  15  H10       -2.2543   -1.7141    0.0441   HC 1 L2F -0.0021
  16   C6       -0.7295   -0.2077    0.2113   CT 1 L2F  0.0098
  17  H11       -0.7183   -0.1951    1.2995   HC 1 L2F -0.0057
  18  H12       -0.5727    0.8213   -0.1081   HC 1 L2F -0.0057
  19   C7        0.4232   -1.0767   -0.2955   CT 1 L2F -0.0029
  20  H13        0.4173   -1.0881   -1.3836   HC 1 L2F  0.0070
  21  H14        0.2676   -2.1052    0.0220   HC 1 L2F  0.0070
  22   C8        1.7920   -0.6020    0.1990   CT 1 L2F  0.0390
  23  H15        1.8054   -0.6005    1.2865   HC 1 L2F -0.0020
  24  H16        1.9362    0.4336   -0.1070   HC 1 L2F -0.0020
  25   C9        2.9361   -1.4812   -0.3164   CT 1 L2F -0.0418
  26  H17        2.9570   -1.4863   -1.4037   HC 1 L2F  0.0487
  27  H18        2.7644   -2.5086   -0.0134   HC 1 L2F  0.0487
  28  C10        4.3175   -1.0966    0.2081   CT 1 L2F -0.0768
  29  H19        5.0498   -1.8297   -0.1104   H1 1 L2F  0.1241
  30  H20        4.3043   -1.0586    1.2916   H1 1 L2F  0.1241
  31   N1        4.7176    0.2240   -0.3072   N2 1 L2F -0.5243
  32  H21        4.0929    0.6701   -0.9426    H 1 L2F  0.3758
  33  C11        5.8338    0.8556   -0.0140   CA 1 L2F  0.7612
  34   N2        6.0837    2.0510   -0.5371   N2 1 L2F -0.8474
  35  H22        6.9283    2.5408   -0.3417    H 1 L2F  0.4404
  36  H23        5.4324    2.5013   -1.1410    H 1 L2F  0.4404
  37   N3        6.7238    0.3131    0.8041   N2 1 L2F -0.8474
  38  H24        7.5642    0.7893    1.0461    H 1 L2F  0.4404
  39  H25        6.5835   -0.5866    1.2048    H 1 L2F  0.4404
@<TRIPOS>BOND
    1     1     2  1
    2     1     3  1
    3     1     4  1
    4     4     5  1
    5     4     6  1
    6     4     7  1
    7     7     8  1
    8     7     9  1
    9     7    10  1
   10    10    11  1
   11    10    12  1
   12    10    13  1
   13    13    14  1
   14    13    15  1
   15    13    16  1
   16    16    17  1
   17    16    18  1
   18    16    19  1
   19    19    20  1
   20    19    21  1
   21    19    22  1
   22    22    23  1
   23    22    24  1
   24    22    25  1
   25    25    26  1
   26    25    27  1
   27    25    28  1
   28    28    29  1
   29    28    30  1
   30    28    31  1
   31    31    32  1
   32    31    33  1
   33    33    34  1
   34    33    37  1
   35    34    35  1
   36    34    36  1
   37    37    38  1
   38    37    39  1
@<TRIPOS>SUBSTRUCTURE
	1 L2F			1 ****			0 ****  ****
@<TRIPOS>RESIDUECONNECT
1 C1 0 0 0 0 0
