#
# Generated by PyRED version SEP-2015
#     http://q4md-forcefieldtools.org
#
@<TRIPOS>MOLECULE
L2F
    43    42     1     0     1
SMALL
USER_CHARGES
@<TRIPOS>ATOM
   1 C12   -8.296763   0.964758   0.271229 CT   1   L2F -0.0751  0.0000 ****
   2 H26   -9.253772   0.601142  -0.088780 HC   1   L2F  0.0177  0.0000 ****
   3 H27   -8.187063   1.992729  -0.062407 HC   1   L2F  0.0177  0.0000 ****
   4 H28   -8.333260   0.972241   1.356860 HC   1   L2F  0.0177  0.0000 ****
   5 C1    -7.148206   0.093972  -0.236493 CT   1   L2F  0.0326  0.0000 ****
   6 H1    -7.305329  -0.933561   0.084289 HC   1   L2F  0.0004  0.0000 ****
   7 H2    -7.160209   0.078986  -1.324225 HC   1   L2F  0.0004  0.0000 ****
   8 C2    -5.777770   0.571111   0.247849 CT   1   L2F  0.0070  0.0000 ****
   9 H3    -5.767664   0.586737   1.336445 HC   1   L2F  0.0004  0.0000 ****
  10 H4    -5.622489   1.600081  -0.072587 HC   1   L2F  0.0004  0.0000 ****
  11 C3    -4.622833  -0.295925  -0.256535 CT   1   L2F  0.0016  0.0000 ****
  12 H5    -4.633065  -0.311303  -1.344990 HC   1   L2F -0.0038  0.0000 ****
  13 H6    -4.778479  -1.324482   0.063943 HC   1   L2F -0.0038  0.0000 ****
  14 C4    -3.253054   0.182125   0.228979 CT   1   L2F  0.0214  0.0000 ****
  15 H7    -3.241949   0.196827   1.317359 HC   1   L2F -0.0067  0.0000 ****
  16 H8    -3.096525   1.210788  -0.091420 HC   1   L2F -0.0067  0.0000 ****
  17 C5    -2.098765  -0.685700  -0.276063 CT   1   L2F  0.0164  0.0000 ****
  18 H9    -2.107928  -0.700233  -1.364385 HC   1   L2F -0.0015  0.0000 ****
  19 H10   -2.254262  -1.714104   0.044058 HC   1   L2F -0.0015  0.0000 ****
  20 C6    -0.729510  -0.207717   0.211348 CT   1   L2F  0.0104  0.0000 ****
  21 H11   -0.718343  -0.195119   1.299503 HC   1   L2F -0.0051  0.0000 ****
  22 H12   -0.572709   0.821318  -0.108114 HC   1   L2F -0.0051  0.0000 ****
  23 C7     0.423218  -1.076679  -0.295455 CT   1   L2F -0.0023  0.0000 ****
  24 H13    0.417267  -1.088066  -1.383580 HC   1   L2F  0.0076  0.0000 ****
  25 H14    0.267614  -2.105218   0.022026 HC   1   L2F  0.0076  0.0000 ****
  26 C8     1.792022  -0.602017   0.198962 CT   1   L2F  0.0396  0.0000 ****
  27 H15    1.805354  -0.600544   1.286464 HC   1   L2F -0.0014  0.0000 ****
  28 H16    1.936219   0.433602  -0.107009 HC   1   L2F -0.0014  0.0000 ****
  29 C9     2.936089  -1.481210  -0.316449 CT   1   L2F -0.0412  0.0000 ****
  30 H17    2.956973  -1.486342  -1.403726 HC   1   L2F  0.0493  0.0000 ****
  31 H18    2.764359  -2.508608  -0.013401 HC   1   L2F  0.0493  0.0000 ****
  32 C10    4.317513  -1.096585   0.208148 CT   1   L2F -0.0762  0.0000 ****
  33 H19    5.049764  -1.829688  -0.110392 H1   1   L2F  0.1247  0.0000 ****
  34 H20    4.304326  -1.058649   1.291560 H1   1   L2F  0.1247  0.0000 ****
  35 N1     4.717564   0.223951  -0.307241 N2   1   L2F -0.5237  0.0000 ****
  36 H21    4.092937   0.670053  -0.942588 H    1   L2F  0.3764  0.0000 ****
  37 C11    5.833828   0.855583  -0.013996 CA   1   L2F  0.7618  0.0000 ****
  38 N2     6.083676   2.051041  -0.537133 N2   1   L2F -0.8468  0.0000 ****
  39 H22    6.928317   2.540757  -0.341712 H    1   L2F  0.4410  0.0000 ****
  40 H23    5.432440   2.501305  -1.140964 H    1   L2F  0.4410  0.0000 ****
  41 N3     6.723786   0.313062   0.804059 N2   1   L2F -0.8468  0.0000 ****
  42 H24    7.564176   0.789250   1.046065 H    1   L2F  0.4410  0.0000 ****
  43 H25    6.583508  -0.586571   1.204767 H    1   L2F  0.4410  0.0000 ****
@<TRIPOS>BOND
    1     1     2 1
    2     1     3 1
    3     1     4 1
    4     1     5 1
    5     5     6 1
    6     5     7 1
    7     5     8 1
    8     8     9 1
    9     8    10 1
   10     8    11 1
   11    11    12 1
   12    11    13 1
   13    11    14 1
   14    14    15 1
   15    14    16 1
   16    14    17 1
   17    17    18 1
   18    17    19 1
   19    17    20 1
   20    20    21 1
   21    20    22 1
   22    20    23 1
   23    23    24 1
   24    23    25 1
   25    23    26 1
   26    26    27 1
   27    26    28 1
   28    26    29 1
   29    29    30 1
   30    29    31 1
   31    29    32 1
   32    32    33 1
   33    32    34 1
   34    32    35 1
   35    35    36 1
   36    35    37 1
   37    37    38 1
   38    37    41 1
   39    38    39 1
   40    38    40 1
   41    41    42 1
   42    41    43 1
@<TRIPOS>SUBSTRUCTURE
      1 L2F               1 ****               0 ****  ****
@<TRIPOS>HEADTAIL
0 0
0 0
@<TRIPOS>RESIDUECONNECT
1 C1 0 0 0 0 0
