#
# Generated by PyRED version SEP-2015
#     http://q4md-forcefieldtools.org
#
@<TRIPOS>MOLECULE
F00_0
    77    76     1     0     1
SMALL
USER_CHARGES
@<TRIPOS>ATOM
   1 C1    17.209679   0.059616   0.000063 CT   1   F00 -0.0293  0.0000 ****
   2 H1    17.251069   0.711253  -0.870237 HC   1   F00  0.0078  0.0000 ****
   3 H2    17.251053   0.711198   0.870404 HC   1   F00  0.0078  0.0000 ****
   4 C3    15.882356  -0.700978   0.000027 CT   1   F00 -0.0070  0.0000 ****
   5 H4    15.843549  -1.353773   0.870672 HC   1   F00  0.0085  0.0000 ****
   6 H5    15.843565  -1.353719  -0.870658 HC   1   F00  0.0085  0.0000 ****
   7 C4    14.657914   0.215963   0.000044 CT   1   F00 -0.0288  0.0000 ****
   8 H6    14.697767   0.868482   0.870732 HC   1   F00  0.0084  0.0000 ****
   9 H7    14.697782   0.868535  -0.870603 HC   1   F00  0.0084  0.0000 ****
  10 C5    13.331068  -0.545594   0.000010 CT   1   F00  0.0162  0.0000 ****
  11 H8    13.291270  -1.198097  -0.870640 HC   1   F00  0.0050  0.0000 ****
  12 H9    13.291254  -1.198150   0.870620 HC   1   F00  0.0050  0.0000 ****
  13 C6    12.106641   0.371596   0.000027 CT   1   F00  0.0032  0.0000 ****
  14 H10   12.146414   1.024101   0.870703 HC   1   F00 -0.0103  0.0000 ****
  15 H11   12.146429   1.024153  -0.870611 HC   1   F00 -0.0103  0.0000 ****
  16 C7    10.779875  -0.390073  -0.000007 CT   1   F00  0.0023  0.0000 ****
  17 H12   10.739977  -1.042529  -0.870656 HC   1   F00 -0.0075  0.0000 ****
  18 H13   10.739962  -1.042580   0.870604 HC   1   F00 -0.0075  0.0000 ****
  19 C8     9.555537   0.527225   0.000010 CT   1   F00  0.0187  0.0000 ****
  20 H14    9.595267   1.179694  -0.870688 HC   1   F00  0.0061  0.0000 ****
  21 H15    9.595254   1.179644   0.870747 HC   1   F00  0.0061  0.0000 ****
  22 C9     8.229236  -0.234947  -0.000022 CT   1   F00  0.0140  0.0000 ****
  23 H16    8.188391  -0.886968  -0.870657 HC   1   F00 -0.0036  0.0000 ****
  24 H17    8.188378  -0.887018   0.870576 HC   1   F00 -0.0036  0.0000 ****
  25 C10    7.005223   0.682862  -0.000004 CT   1   F00  0.0040  0.0000 ****
  26 H18    7.046910   1.334842   0.871046 HC   1   F00 -0.0164  0.0000 ****
  27 H19    7.046922   1.334891  -0.871016 HC   1   F00 -0.0164  0.0000 ****
  28 C11    5.682565  -0.085326  -0.000034 CT   1   F00  0.0415  0.0000 ****
  29 H20    5.625389  -0.731168  -0.871870 HC   1   F00  0.0019  0.0000 ****
  30 H21    5.625379  -0.731218   0.871763 HC   1   F00  0.0019  0.0000 ****
  31 C12    4.471088   0.830860  -0.000015 CT   1   F00  0.0858  0.0000 ****
  32 H22    4.482622   1.477213   0.877565 H1   1   F00  0.0428  0.0000 ****
  33 H23    4.482632   1.477264  -0.877557 H1   1   F00  0.0428  0.0000 ****
  34 O1     3.314149   0.046552  -0.000044 OS   1   F00 -0.3895  0.0000 ****
  35 C13    2.120768   0.766240  -0.000024 CT   1   F00  0.1018  0.0000 ****
  36 H24    2.048780   1.403722   0.878871 H1   1   F00  0.0321  0.0000 ****
  37 H25    2.048783   1.403776  -0.878881 H1   1   F00  0.0321  0.0000 ****
  38 C14    0.982227  -0.232304  -0.000057 CT   1   F00  0.1530  0.0000 ****
  39 H26    1.052138  -0.868925  -0.879069 H1   1   F00  0.0381  0.0000 ****
  40 H27    1.052138  -0.868981   0.878914 H1   1   F00  0.0381  0.0000 ****
  41 O2    -0.214247   0.486749  -0.000033 OS   1   F00 -0.3942  0.0000 ****
  42 C15   -1.367698  -0.297667  -0.000060 CT   1   F00  0.0898  0.0000 ****
  43 H28   -1.402930  -0.937290  -0.879086 H1   1   F00  0.0368  0.0000 ****
  44 H29   -1.402927  -0.937354   0.878919 H1   1   F00  0.0368  0.0000 ****
  45 C16   -2.558784   0.637487  -0.000024 CT   1   F00  0.0991  0.0000 ****
  46 H30   -2.523802   1.277030  -0.879065 H1   1   F00  0.0484  0.0000 ****
  47 H31   -2.523797   1.276967   0.879062 H1   1   F00  0.0484  0.0000 ****
  48 O3    -3.713148  -0.146531  -0.000048 OS   1   F00 -0.3298  0.0000 ****
  49 C17   -4.908708   0.572525  -0.000017 CT   1   F00  0.0196  0.0000 ****
  50 H32   -4.979264   1.209102   0.879063 H1   1   F00  0.0555  0.0000 ****
  51 H33   -4.979270   1.209169  -0.879047 H1   1   F00  0.0555  0.0000 ****
  52 C18   -6.045926  -0.427430  -0.000050 CT   1   F00  0.1168  0.0000 ****
  53 H34   -5.975469  -1.063951  -0.879131 H1   1   F00  0.0440  0.0000 ****
  54 H35   -5.975460  -1.064019   0.878982 H1   1   F00  0.0440  0.0000 ****
  55 O4    -7.241745   0.291613  -0.000016 OS   1   F00 -0.3694  0.0000 ****
  56 C19   -8.395865  -0.492520  -0.000036 CT   1   F00  0.0878  0.0000 ****
  57 H36   -8.431034  -1.132036   0.878995 H1   1   F00  0.0506  0.0000 ****
  58 H37   -8.431048  -1.131971  -0.879113 H1   1   F00  0.0506  0.0000 ****
  59 C20   -9.586621   0.443038   0.000009 CT   1   F00  0.0657  0.0000 ****
  60 H38   -9.551376   1.082523   0.879096 H1   1   F00  0.0570  0.0000 ****
  61 H39   -9.551391   1.082587  -0.879033 H1   1   F00  0.0570  0.0000 ****
  62 O5   -10.740700  -0.340975  -0.000010 OS   1   F00 -0.3811  0.0000 ****
  63 C21  -11.936538   0.377987   0.000030 CT   1   F00  0.1066  0.0000 ****
  64 H40  -12.006864   1.014566   0.879127 H1   1   F00  0.0507  0.0000 ****
  65 H41  -12.006882   1.014633  -0.879018 H1   1   F00  0.0507  0.0000 ****
  66 C22  -13.073993  -0.621712   0.000004 CT   1   F00  0.1059  0.0000 ****
  67 H42  -13.003565  -1.258317  -0.879029 H1   1   F00  0.0443  0.0000 ****
  68 H43  -13.003546  -1.258385   0.878986 H1   1   F00  0.0443  0.0000 ****
  69 O6   -14.269298   0.097750   0.000045 OS   1   F00 -0.4016  0.0000 ****
  70 C23  -15.423866  -0.686309   0.000027 CT   1   F00  0.0817  0.0000 ****
  71 H44  -15.459721  -1.325647  -0.879108 H1   1   F00  0.0560  0.0000 ****
  72 H45  -15.459700  -1.325716   0.879112 H1   1   F00  0.0560  0.0000 ****
  73 C24  -16.615716   0.246886   0.000079 CT   1   F00  0.2205  0.0000 ****
  74 H46  -16.573779   0.883995   0.879424 H1   1   F00  0.0113  0.0000 ****
  75 H47  -16.573801   0.884064  -0.879218 H1   1   F00  0.0113  0.0000 ****
  76 O7   -17.767043  -0.553994   0.000062 OH   1   F00 -0.6644  0.0000 ****
  77 H48  -18.538306  -0.005856   0.000086 HO   1   F00  0.4261  0.0000 ****
@<TRIPOS>BOND
    1     1     2 1
    2     1     3 1
    3     1     4 1
    4     4     5 1
    5     4     6 1
    6     4     7 1
    7     7     8 1
    8     7     9 1
    9     7    10 1
   10    10    11 1
   11    10    12 1
   12    10    13 1
   13    13    14 1
   14    13    15 1
   15    13    16 1
   16    16    17 1
   17    16    18 1
   18    16    19 1
   19    19    20 1
   20    19    21 1
   21    19    22 1
   22    22    23 1
   23    22    24 1
   24    22    25 1
   25    25    26 1
   26    25    27 1
   27    25    28 1
   28    28    29 1
   29    28    30 1
   30    28    31 1
   31    31    32 1
   32    31    33 1
   33    31    34 1
   34    34    35 1
   35    35    36 1
   36    35    37 1
   37    35    38 1
   38    38    39 1
   39    38    40 1
   40    38    41 1
   41    41    42 1
   42    42    43 1
   43    42    44 1
   44    42    45 1
   45    45    46 1
   46    45    47 1
   47    45    48 1
   48    48    49 1
   49    49    50 1
   50    49    51 1
   51    49    52 1
   52    52    53 1
   53    52    54 1
   54    52    55 1
   55    55    56 1
   56    56    57 1
   57    56    58 1
   58    56    59 1
   59    59    60 1
   60    59    61 1
   61    59    62 1
   62    62    63 1
   63    63    64 1
   64    63    65 1
   65    63    66 1
   66    66    67 1
   67    66    68 1
   68    66    69 1
   69    69    70 1
   70    70    71 1
   71    70    72 1
   72    70    73 1
   73    73    74 1
   74    73    75 1
   75    73    76 1
   76    76    77 1
@<TRIPOS>SUBSTRUCTURE
      1 F00               1 ****               0 ****  ****
@<TRIPOS>HEADTAIL
C1 1
0 0
@<TRIPOS>RESIDUECONNECT
1 C1 0 0 0 0 0
