#
# Generated by PyRED version SEP-2015
#     http://q4md-forcefieldtools.org
#
@<TRIPOS>MOLECULE
L3F
    38    37     1     0     1
SMALL
USER_CHARGES
@<TRIPOS>ATOM
   1 C11   -8.852627   0.189681  -0.000012 CT   1   L3F -0.0461  0.0000 ****
   2 H21   -9.711911  -0.474688   0.000013 HC   1   L3F  0.0077  0.0000 ****
   3 H22   -8.927447   0.827006  -0.876884 HC   1   L3F  0.0077  0.0000 ****
   4 H23   -8.927447   0.827072   0.876812 HC   1   L3F  0.0077  0.0000 ****
   5 C1    -7.541497  -0.596029   0.000017 CT   1   L3F -0.0149  0.0000 ****
   6 H1    -7.512641  -1.248494   0.870275 HC   1   L3F -0.0034  0.0000 ****
   7 H20   -7.512641  -1.248560  -0.870192 HC   1   L3F -0.0034  0.0000 ****
   8 C2    -6.303398   0.302607  -0.000017 CT   1   L3F  0.0589  0.0000 ****
   9 H2    -6.335522   0.956052   0.870594 HC   1   L3F  0.0006  0.0000 ****
  10 H3    -6.335521   0.955986  -0.870678 HC   1   L3F  0.0006  0.0000 ****
  11 C3    -4.986720  -0.476287   0.000012 CT   1   L3F  0.0556  0.0000 ****
  12 H4    -4.956299  -1.129676  -0.870514 HC   1   L3F -0.0298  0.0000 ****
  13 H5    -4.956299  -1.129611   0.870587 HC   1   L3F -0.0298  0.0000 ****
  14 C4    -3.748827   0.422873  -0.000021 CT   1   L3F  0.0081  0.0000 ****
  15 H6    -3.780123   1.076324   0.870561 HC   1   L3F -0.0490  0.0000 ****
  16 H7    -3.780122   1.076258  -0.870652 HC   1   L3F -0.0490  0.0000 ****
  17 C5    -2.431891  -0.356013   0.000009 CT   1   L3F  0.1131  0.0000 ****
  18 H8    -2.401567  -1.009559  -0.870417 HC   1   L3F -0.0261  0.0000 ****
  19 H9    -2.401568  -1.009494   0.870484 HC   1   L3F -0.0261  0.0000 ****
  20 C6    -1.193338   0.542397  -0.000024 CT   1   L3F  0.0458  0.0000 ****
  21 H10   -1.224979   1.196095   0.870613 HC   1   L3F -0.0120  0.0000 ****
  22 H11   -1.224978   1.196030  -0.870710 HC   1   L3F -0.0120  0.0000 ****
  23 C7     0.123804  -0.236335   0.000006 CT   1   L3F -0.0240  0.0000 ****
  24 H12    0.154817  -0.889861  -0.870264 HC   1   L3F -0.0255  0.0000 ****
  25 H13    0.154815  -0.889797   0.870326 HC   1   L3F -0.0255  0.0000 ****
  26 C8     1.363619   0.660526  -0.000026 CT   1   L3F  0.0397  0.0000 ****
  27 H14    1.331258   1.314370   0.871035 HC   1   L3F -0.0238  0.0000 ****
  28 H15    1.331261   1.314304  -0.871136 HC   1   L3F -0.0238  0.0000 ****
  29 C9     2.676018  -0.127124   0.000005 CT   1   L3F  0.0969  0.0000 ****
  30 H16    2.718685  -0.772886  -0.871205 HC   1   L3F  0.0118  0.0000 ****
  31 H17    2.718682  -0.772821   0.871264 HC   1   L3F  0.0118  0.0000 ****
  32 C10    3.905000   0.775365  -0.000027 CT   1   L3F -0.2519  0.0000 ****
  33 H18    3.919129   1.413523   0.877401 H1   1   L3F  0.0628  0.0000 ****
  34 H19    3.919132   1.413457  -0.877503 H1   1   L3F  0.0628  0.0000 ****
  35 S1     5.453153  -0.130513   0.000011 S    1   L3F  1.1839  0.0000 ****
  36 O1     5.416956  -0.924213   1.219978 O    1   L3F -0.6998  0.0000 ****
  37 O2     5.416965  -0.924301  -1.219898 O    1   L3F -0.6998  0.0000 ****
  38 O3     6.469825   0.909416  -0.000022 O    1   L3F -0.6998  0.0000 ****
@<TRIPOS>BOND
    1     1     2 1
    2     1     3 1
    3     1     4 1
    4     1     5 1
    5     5     6 1
    6     5     7 1
    7     5     8 1
    8     8     9 1
    9     8    10 1
   10     8    11 1
   11    11    12 1
   12    11    13 1
   13    11    14 1
   14    14    15 1
   15    14    16 1
   16    14    17 1
   17    17    18 1
   18    17    19 1
   19    17    20 1
   20    20    21 1
   21    20    22 1
   22    20    23 1
   23    23    24 1
   24    23    25 1
   25    23    26 1
   26    26    27 1
   27    26    28 1
   28    26    29 1
   29    29    30 1
   30    29    31 1
   31    29    32 1
   32    32    33 1
   33    32    34 1
   34    32    35 1
   35    35    36 1
   36    35    37 1
   37    35    38 1
@<TRIPOS>SUBSTRUCTURE
      1 L3F               1 ****               0 ****  ****
@<TRIPOS>HEADTAIL
0 0
0 0
@<TRIPOS>RESIDUECONNECT
1 0 0 0 0 0 0
