@<TRIPOS>MOLECULE
PEP
	330	333	1
SMALL
USER_CHARGES
@<TRIPOS>ATOM
   0   C0        0.0000    0.0000    0.0000   CT 1 PEP -0.0036
   1   H1        0.0200   -0.6470   -0.8710   HC 1 PEP  0.0060
   2   H2        0.0200   -0.6470    0.8710   HC 1 PEP  0.0060
   3   C3        1.2610    0.8460    0.0000   CT 1 PEP  0.0581
   4   H4        1.2830    1.4940   -0.8780   H1 1 PEP  0.0505
   5   H5        1.2830    1.4940    0.8780   H1 1 PEP  0.0505
   6   O6        2.3710    0.0000    0.0000   OS 1 PEP -0.1675
   7   C7        3.9710    0.0000    0.0000   CT 1 PEP -0.0036
   8   H8        3.9910   -0.6470   -0.8710   HC 1 PEP  0.0060
   9   H9        3.9910   -0.6470    0.8720   HC 1 PEP  0.0060
  10  C10        5.2320    0.8460    0.0000   CT 1 PEP  0.0581
  11  H11        5.2540    1.4940   -0.8780   H1 1 PEP  0.0505
  12  H12        5.2540    1.4940    0.8780   H1 1 PEP  0.0505
  13  O13        6.3420    0.0000    0.0000   OS 1 PEP -0.1675
  14  C14        7.9420    0.0000    0.0000   CT 1 PEP -0.0036
  15  H15        7.9620   -0.6470   -0.8710   HC 1 PEP  0.0060
  16  H16        7.9620   -0.6470    0.8720   HC 1 PEP  0.0060
  17  C17        9.2040    0.8460    0.0000   CT 1 PEP  0.0581
  18  H18        9.2260    1.4940   -0.8780   H1 1 PEP  0.0505
  19  H19        9.2260    1.4940    0.8780   H1 1 PEP  0.0505
  20  O20       10.3140    0.0000    0.0000   OS 1 PEP -0.1675
  21  C21       11.9140    0.0000    0.0000   CT 1 PEP -0.0036
  22  H22       11.9340   -0.6470   -0.8710   HC 1 PEP  0.0060
  23  H23       11.9340   -0.6470    0.8720   HC 1 PEP  0.0060
  24  C24       13.1750    0.8460    0.0000   CT 1 PEP  0.0581
  25  H25       13.1970    1.4940   -0.8780   H1 1 PEP  0.0505
  26  H26       13.1970    1.4940    0.8780   H1 1 PEP  0.0505
  27  O27       14.2850    0.0000    0.0000   OS 1 PEP -0.1675
  28  C28       15.8850    0.0000    0.0000   CT 1 PEP -0.0036
  29  H29       15.9050   -0.6470   -0.8710   HC 1 PEP  0.0060
  30  H30       15.9050   -0.6470    0.8720   HC 1 PEP  0.0060
  31  C31       17.1460    0.8460    0.0000   CT 1 PEP  0.0581
  32  H32       17.1680    1.4940   -0.8780   H1 1 PEP  0.0505
  33  H33       17.1680    1.4940    0.8780   H1 1 PEP  0.0505
  34  O34       18.2560    0.0000    0.0000   OS 1 PEP -0.1675
  35  C35       19.8560    0.0000    0.0000   CT 1 PEP -0.0036
  36  H36       19.8760   -0.6470   -0.8710   HC 1 PEP  0.0060
  37  H37       19.8760   -0.6470    0.8720   HC 1 PEP  0.0060
  38  C38       21.1170    0.8460    0.0000   CT 1 PEP  0.0581
  39  H39       21.1390    1.4940   -0.8780   H1 1 PEP  0.0505
  40  H40       21.1390    1.4940    0.8780   H1 1 PEP  0.0505
  41  O41       22.2270    0.0000    0.0000   OS 1 PEP -0.1675
  42  C42       23.8270    0.0000    0.0000   CT 1 PEP -0.0036
  43  H43       23.8470   -0.6470   -0.8710   HC 1 PEP  0.0060
  44  H44       23.8470   -0.6470    0.8720   HC 1 PEP  0.0060
  45  C45       25.0890    0.8460    0.0000   CT 1 PEP  0.0581
  46  H46       25.1100    1.4940   -0.8780   H1 1 PEP  0.0505
  47  H47       25.1100    1.4940    0.8780   H1 1 PEP  0.0505
  48  O48       26.1990    0.0000    0.0000   OS 1 PEP -0.1675
  49  C49       27.7990    0.0000    0.0000   CT 1 PEP -0.0036
  50  H50       27.8180   -0.6470   -0.8710   HC 1 PEP  0.0060
  51  H51       27.8180   -0.6470    0.8720   HC 1 PEP  0.0060
  52  C52       29.0600    0.8460    0.0000   CT 1 PEP  0.0581
  53  H53       29.0820    1.4940   -0.8780   H1 1 PEP  0.0505
  54  H54       29.0820    1.4940    0.8780   H1 1 PEP  0.0505
  55  O55       30.1700    0.0000    0.0000   OS 1 PEP -0.1675
  56  C56       31.7700    0.0000    0.0000   CT 1 PEP -0.0036
  57  H57       31.7900   -0.6470   -0.8710   HC 1 PEP  0.0060
  58  H58       31.7900   -0.6470    0.8720   HC 1 PEP  0.0060
  59  C59       33.0310    0.8460    0.0000   CT 1 PEP  0.0581
  60  H60       33.0530    1.4940   -0.8780   H1 1 PEP  0.0505
  61  H61       33.0530    1.4940    0.8780   H1 1 PEP  0.0505
  62  O62       34.1410    0.0000    0.0000   OS 1 PEP -0.1675
  63  C63       35.7410    0.0000    0.0000   CT 1 PEP -0.0036
  64  H64       35.7610   -0.6470   -0.8710   HC 1 PEP  0.0060
  65  H65       35.7610   -0.6470    0.8720   HC 1 PEP  0.0060
  66  C66       37.0020    0.8460    0.0000   CT 1 PEP  0.0581
  67  H67       37.0240    1.4940   -0.8780   H1 1 PEP  0.0505
  68  H68       37.0240    1.4940    0.8780   H1 1 PEP  0.0505
  69  O69       38.1120    0.0000    0.0000   OS 1 PEP -0.1675
  70  C70       39.7120    0.0000    0.0000   CT 1 PEP -0.0036
  71  H71       39.7320   -0.6470   -0.8710   HC 1 PEP  0.0060
  72  H72       39.7320   -0.6470    0.8720   HC 1 PEP  0.0060
  73  C73       40.9740    0.8460    0.0000   CT 1 PEP  0.0581
  74  H74       40.9950    1.4940   -0.8780   H1 1 PEP  0.0505
  75  H75       40.9950    1.4940    0.8780   H1 1 PEP  0.0505
  76  O76       42.0840    0.0000    0.0000   OS 1 PEP -0.1675
  77  C77       43.6840    0.0000    0.0000   CT 1 PEP -0.0036
  78  H78       43.7030   -0.6470   -0.8710   HC 1 PEP  0.0060
  79  H79       43.7030   -0.6470    0.8720   HC 1 PEP  0.0060
  80  C80       44.9450    0.8460    0.0000   CT 1 PEP  0.0581
  81  H81       44.9670    1.4940   -0.8780   H1 1 PEP  0.0505
  82  H82       44.9670    1.4940    0.8780   H1 1 PEP  0.0505
  83  O83       46.0550    0.0000    0.0000   OS 1 PEP -0.1675
  84  C84       47.6550    0.0000    0.0000   CT 1 PEP -0.0036
  85  H85       47.6750   -0.6470   -0.8710   HC 1 PEP  0.0060
  86  H86       47.6750   -0.6470    0.8720   HC 1 PEP  0.0060
  87  C87       48.9160    0.8460    0.0000   CT 1 PEP  0.0581
  88  H88       48.9380    1.4940   -0.8780   H1 1 PEP  0.0505
  89  H89       48.9380    1.4940    0.8780   H1 1 PEP  0.0505
  90  O90       50.0260    0.0000    0.0000   OS 1 PEP -0.1675
  91  C91       51.6260    0.0000    0.0000   CT 1 PEP -0.0036
  92  H92       51.6460   -0.6470   -0.8710   HC 1 PEP  0.0060
  93  H93       51.6460   -0.6470    0.8720   HC 1 PEP  0.0060
  94  C94       52.8870    0.8460    0.0000   CT 1 PEP  0.0581
  95  H95       52.9090    1.4940   -0.8780   H1 1 PEP  0.0505
  96  H96       52.9090    1.4940    0.8780   H1 1 PEP  0.0505
  97  O97       53.9970    0.0000    0.0000   OS 1 PEP -0.1675
  98  C98       55.5970    0.0000    0.0000   CT 1 PEP -0.0036
  99  H99       55.6170   -0.6470   -0.8710   HC 1 PEP  0.0060
 100 H100       55.6170   -0.6470    0.8720   HC 1 PEP  0.0060
 101 C101       56.8580    0.8460    0.0000   CT 1 PEP  0.0581
 102 H102       56.8800    1.4940   -0.8780   H1 1 PEP  0.0505
 103 H103       56.8800    1.4940    0.8780   H1 1 PEP  0.0505
 104 O104       57.9680    0.0000    0.0000   OS 1 PEP -0.1675
 105 C105       59.5680    0.0000    0.0000   CT 1 PEP -0.0036
 106 H106       59.5880   -0.6470   -0.8710   HC 1 PEP  0.0060
 107 H107       59.5880   -0.6470    0.8720   HC 1 PEP  0.0060
 108 C108       60.8300    0.8460    0.0000   CT 1 PEP  0.0581
 109 H109       60.8520    1.4940   -0.8780   H1 1 PEP  0.0505
 110 H110       60.8520    1.4940    0.8780   H1 1 PEP  0.0505
 111 O111       61.9400    0.0000    0.0000   OS 1 PEP -0.1675
 112 C112       63.5400    0.0000    0.0000   CT 1 PEP -0.0036
 113 H113       63.5600   -0.6470   -0.8710   HC 1 PEP  0.0060
 114 H114       63.5600   -0.6470    0.8720   HC 1 PEP  0.0060
 115 C115       64.8010    0.8460    0.0000   CT 1 PEP  0.0581
 116 H116       64.8230    1.4940   -0.8780   H1 1 PEP  0.0505
 117 H117       64.8230    1.4940    0.8780   H1 1 PEP  0.0505
 118 O118       65.9110    0.0000    0.0000   OS 1 PEP -0.1675
 119 C119       67.5110    0.0000    0.0000   CT 1 PEP -0.0036
 120 H120       67.5310   -0.6470   -0.8710   HC 1 PEP  0.0060
 121 H121       67.5310   -0.6470    0.8720   HC 1 PEP  0.0060
 122 C122       68.7720    0.8460    0.0000   CT 1 PEP  0.0581
 123 H123       68.7940    1.4940   -0.8770   H1 1 PEP  0.0505
 124 H124       68.7940    1.4940    0.8780   H1 1 PEP  0.0505
 125 O125       69.8820    0.0000    0.0000   OS 1 PEP -0.1675
 126 C126       71.4820    0.0000    0.0000   CT 1 PEP -0.0036
 127 H127       71.5020   -0.6470   -0.8710   HC 1 PEP  0.0060
 128 H128       71.5020   -0.6470    0.8720   HC 1 PEP  0.0060
 129 C129       72.7430    0.8460    0.0000   CT 1 PEP  0.0581
 130 H130       72.7650    1.4940   -0.8770   H1 1 PEP  0.0505
 131 H131       72.7650    1.4940    0.8780   H1 1 PEP  0.0505
 132 O132       73.8540    0.0000    0.0000   OS 1 PEP -0.1675
 133 C133       75.4540    0.0000    0.0000   CT 1 PEP -0.0036
 134 H134       75.4730   -0.6470   -0.8710   HC 1 PEP  0.0060
 135 H135       75.4730   -0.6470    0.8720   HC 1 PEP  0.0060
 136 C136       76.7150    0.8460    0.0000   CT 1 PEP  0.0581
 137 H137       76.7360    1.4940   -0.8770   H1 1 PEP  0.0505
 138 H138       76.7360    1.4940    0.8780   H1 1 PEP  0.0505
 139 O139       77.8250    0.0000    0.0000   OS 1 PEP -0.1675
 140 C140       79.4250    0.0000    0.0000   CT 1 PEP -0.0036
 141 H141       79.4440   -0.6470   -0.8710   HC 1 PEP  0.0060
 142 H142       79.4440   -0.6470    0.8720   HC 1 PEP  0.0060
 143 C143       80.6860    0.8460    0.0000   CT 1 PEP  0.0581
 144 H144       80.7080    1.4940   -0.8770   H1 1 PEP  0.0505
 145 H145       80.7080    1.4940    0.8780   H1 1 PEP  0.0505
 146 O146       81.7960    0.0000    0.0000   OS 1 PEP -0.1675
 147 C147       83.3960    0.0000    0.0000   CT 1 PEP -0.0036
 148 H148       83.4160   -0.6470   -0.8710   HC 1 PEP  0.0060
 149 H149       83.4160   -0.6470    0.8720   HC 1 PEP  0.0060
 150 C150       84.6570    0.8460    0.0000   CT 1 PEP  0.0581
 151 H151       84.6790    1.4940   -0.8770   H1 1 PEP  0.0505
 152 H152       84.6790    1.4940    0.8780   H1 1 PEP  0.0505
 153 O153       85.7670    0.0000    0.0000   OS 1 PEP -0.1675
 154 C154       87.3670    0.0000    0.0000   CT 1 PEP -0.0036
 155 H155       87.3870   -0.6470   -0.8710   HC 1 PEP  0.0060
 156 H156       87.3870   -0.6470    0.8720   HC 1 PEP  0.0060
 157 C157       88.6280    0.8460    0.0000   CT 1 PEP  0.0581
 158 H158       88.6500    1.4940   -0.8770   H1 1 PEP  0.0505
 159 H159       88.6500    1.4940    0.8780   H1 1 PEP  0.0505
 160 O160       89.7380    0.0000    0.0000   OS 1 PEP -0.1675
 161 C161       91.3380    0.0000    0.0000   CT 1 PEP -0.0036
 162 H162       91.3580   -0.6470   -0.8710   HC 1 PEP  0.0060
 163 H163       91.3580   -0.6470    0.8720   HC 1 PEP  0.0060
 164 C164       92.6000    0.8460    0.0000   CT 1 PEP  0.0581
 165 H165       92.6210    1.4940   -0.8770   H1 1 PEP  0.0505
 166 H166       92.6210    1.4940    0.8780   H1 1 PEP  0.0505
 167 O167       93.7100    0.0000    0.0000   OS 1 PEP -0.1675
 168 C168       95.3100    0.0000    0.0000   CT 1 PEP -0.0036
 169 H169       95.3290   -0.6470   -0.8710   HC 1 PEP  0.0060
 170 H170       95.3290   -0.6470    0.8720   HC 1 PEP  0.0060
 171 C171       96.5710    0.8460    0.0000   CT 1 PEP  0.0581
 172 H172       96.5930    1.4940   -0.8770   H1 1 PEP  0.0505
 173 H173       96.5930    1.4940    0.8780   H1 1 PEP  0.0505
 174 O174       97.6810    0.0000    0.0000   OS 1 PEP -0.1675
 175 C175       99.2810    0.0000    0.0000   CT 1 PEP -0.0036
 176 H176       99.3010   -0.6470   -0.8710   HC 1 PEP  0.0060
 177 H177       99.3010   -0.6470    0.8720   HC 1 PEP  0.0060
 178 C178      100.5420    0.8460    0.0000   CT 1 PEP  0.0581
 179 H179      100.5640    1.4940   -0.8770   H1 1 PEP  0.0505
 180 H180      100.5640    1.4940    0.8780   H1 1 PEP  0.0505
 181 O181      101.6520    0.0000    0.0000   OS 1 PEP -0.1675
 182 C182      103.2520    0.0000    0.0000   CT 1 PEP -0.0036
 183 H183      103.2720   -0.6470   -0.8710   HC 1 PEP  0.0060
 184 H184      103.2720   -0.6470    0.8720   HC 1 PEP  0.0060
 185 C185      104.5130    0.8460    0.0000   CT 1 PEP  0.0581
 186 H186      104.5350    1.4940   -0.8770   H1 1 PEP  0.0505
 187 H187      104.5350    1.4940    0.8780   H1 1 PEP  0.0505
 188 O188      105.6230    0.0000    0.0000   OS 1 PEP -0.1675
 189 C189      107.2230    0.0000    0.0000   CT 1 PEP -0.0036
 190 H190      107.2430   -0.6470   -0.8710   HC 1 PEP  0.0060
 191 H191      107.2430   -0.6470    0.8720   HC 1 PEP  0.0060
 192 C192      108.4850    0.8460    0.0000   CT 1 PEP  0.0581
 193 H193      108.5060    1.4940   -0.8770   H1 1 PEP  0.0505
 194 H194      108.5060    1.4940    0.8780   H1 1 PEP  0.0505
 195 O195      109.5950    0.0000    0.0000   OS 1 PEP -0.1675
 196 C196      111.1950    0.0000    0.0000   CT 1 PEP -0.0036
 197 H197      111.2140   -0.6470   -0.8710   HC 1 PEP  0.0060
 198 H198      111.2140   -0.6470    0.8720   HC 1 PEP  0.0060
 199 C199      112.4560    0.8460    0.0000   CT 1 PEP  0.0581
 200 H200      112.4780    1.4940   -0.8770   H1 1 PEP  0.0505
 201 H201      112.4780    1.4940    0.8780   H1 1 PEP  0.0505
 202 O202      113.5660    0.0000    0.0000   OS 1 PEP -0.1675
 203 C203      115.1660    0.0000    0.0000   CT 1 PEP -0.0036
 204 H204      115.1860   -0.6470   -0.8710   HC 1 PEP  0.0060
 205 H205      115.1860   -0.6470    0.8720   HC 1 PEP  0.0060
 206 C206      116.4270    0.8460    0.0000   CT 1 PEP  0.0581
 207 H207      116.4490    1.4940   -0.8770   H1 1 PEP  0.0505
 208 H208      116.4490    1.4940    0.8780   H1 1 PEP  0.0505
 209 O209      117.5370    0.0000    0.0000   OS 1 PEP -0.1675
 210 C210      119.1370    0.0000    0.0000   CT 1 PEP -0.0036
 211 H211      119.1570   -0.6470   -0.8710   HC 1 PEP  0.0060
 212 H212      119.1570   -0.6470    0.8720   HC 1 PEP  0.0060
 213 C213      120.3980    0.8460    0.0000   CT 1 PEP  0.0581
 214 H214      120.4200    1.4940   -0.8770   H1 1 PEP  0.0505
 215 H215      120.4200    1.4940    0.8780   H1 1 PEP  0.0505
 216 O216      121.5080    0.0000    0.0000   OS 1 PEP -0.1675
 217 C217      123.1080    0.0000    0.0000   CT 1 PEP -0.0036
 218 H218      123.1280   -0.6470   -0.8710   HC 1 PEP  0.0060
 219 H219      123.1280   -0.6470    0.8720   HC 1 PEP  0.0060
 220 C220      124.3700    0.8460    0.0000   CT 1 PEP  0.0581
 221 H221      124.3910    1.4940   -0.8770   H1 1 PEP  0.0505
 222 H222      124.3910    1.4940    0.8780   H1 1 PEP  0.0505
 223 O223      125.4800    0.0000    0.0000   OS 1 PEP -0.1675
 224 C224      127.0800    0.0000    0.0000   CT 1 PEP -0.0036
 225 H225      127.0990   -0.6470   -0.8710   HC 1 PEP  0.0060
 226 H226      127.0990   -0.6470    0.8720   HC 1 PEP  0.0060
 227 C227      128.3410    0.8460    0.0000   CT 1 PEP  0.0581
 228 H228      128.3630    1.4940   -0.8770   H1 1 PEP  0.0505
 229 H229      128.3630    1.4940    0.8780   H1 1 PEP  0.0505
 230 O230      129.4510    0.0000    0.0000   OS 1 PEP -0.1675
 231 C231      131.0510    0.0000    0.0000   CT 1 PEP -0.0036
 232 H232      131.0710   -0.6470   -0.8710   HC 1 PEP  0.0060
 233 H233      131.0710   -0.6470    0.8720   HC 1 PEP  0.0060
 234 C234      132.3120    0.8460    0.0000   CT 1 PEP  0.0581
 235 H235      132.3340    1.4940   -0.8770   H1 1 PEP  0.0505
 236 H236      132.3340    1.4940    0.8780   H1 1 PEP  0.0505
 237 O237      133.4220    0.0000    0.0000   OS 1 PEP -0.1675
 238 C238      135.0220    0.0000    0.0000   CT 1 PEP -0.0036
 239 H239      135.0420   -0.6470   -0.8710   HC 1 PEP  0.0060
 240 H240      135.0420   -0.6470    0.8720   HC 1 PEP  0.0060
 241 C241      136.2830    0.8460    0.0000   CT 1 PEP  0.0581
 242 H242      136.3050    1.4940   -0.8770   H1 1 PEP  0.0505
 243 H243      136.3050    1.4940    0.8780   H1 1 PEP  0.0505
 244 O244      137.3930    0.0000    0.0000   OS 1 PEP -0.1675
 245 C245      138.9930    0.0000    0.0000   CT 1 PEP -0.0036
 246 H246      139.0130   -0.6470   -0.8710   HC 1 PEP  0.0060
 247 H247      139.0130   -0.6470    0.8720   HC 1 PEP  0.0060
 248 C248      140.2540    0.8460    0.0000   CT 1 PEP  0.0581
 249 H249      140.2760    1.4940   -0.8770   H1 1 PEP  0.0505
 250 H250      140.2760    1.4940    0.8780   H1 1 PEP  0.0505
 251 O251      141.3640    0.0000    0.0000   OS 1 PEP -0.1675
 252 C252      142.9640    0.0000    0.0000   CT 1 PEP -0.0036
 253 H253      142.9840   -0.6470   -0.8710   HC 1 PEP  0.0060
 254 H254      142.9840   -0.6470    0.8720   HC 1 PEP  0.0060
 255 C255      144.2260    0.8460    0.0000   CT 1 PEP  0.0581
 256 H256      144.2480    1.4940   -0.8770   H1 1 PEP  0.0505
 257 H257      144.2480    1.4940    0.8780   H1 1 PEP  0.0505
 258 O258      145.3360    0.0000    0.0000   OS 1 PEP -0.1675
 259 C259      146.9360    0.0000    0.0000   CT 1 PEP -0.0036
 260 H260      146.9560   -0.6470   -0.8710   HC 1 PEP  0.0060
 261 H261      146.9560   -0.6470    0.8720   HC 1 PEP  0.0060
 262 C262      148.1970    0.8460    0.0000   CT 1 PEP  0.0581
 263 H263      148.2190    1.4940   -0.8770   H1 1 PEP  0.0505
 264 H264      148.2190    1.4940    0.8780   H1 1 PEP  0.0505
 265 O265      149.3070    0.0000    0.0000   OS 1 PEP -0.1675
 266 C266      150.9070    0.0000    0.0000   CT 1 PEP -0.0036
 267 H267      150.9270   -0.6470   -0.8710   HC 1 PEP  0.0060
 268 H268      150.9270   -0.6470    0.8720   HC 1 PEP  0.0060
 269 C269      152.1680    0.8460    0.0000   CT 1 PEP  0.0581
 270 H270      152.1900    1.4940   -0.8770   H1 1 PEP  0.0505
 271 H271      152.1900    1.4940    0.8780   H1 1 PEP  0.0505
 272 O272      153.2780    0.0000    0.0000   OS 1 PEP -0.1675
 273 C273      154.8780    0.0000    0.0000   CT 1 PEP -0.0036
 274 H274      154.8980   -0.6470   -0.8710   HC 1 PEP  0.0060
 275 H275      154.8980   -0.6470    0.8720   HC 1 PEP  0.0060
 276 C276      156.1390    0.8460    0.0000   CT 1 PEP  0.0581
 277 H277      156.1610    1.4940   -0.8770   H1 1 PEP  0.0505
 278 H278      156.1610    1.4940    0.8780   H1 1 PEP  0.0505
 279 O279      157.2490    0.0000    0.0000   OS 1 PEP -0.1675
 280 C280      168.7140   -3.4640    0.4580   CA 1 PEP -0.0778
 281 H281      169.2000   -4.4140    0.5260   HA 1 PEP  0.1816
 282 C282      167.3020   -3.4200    0.4500   CA 1 PEP -0.1201
 283 S283      166.4030   -4.9860    0.5630    S 1 PEP  1.0741
 284 O284      165.5480   -4.8610    1.7380    O 1 PEP -0.6728
 285 O285      165.6420   -5.0900   -0.6780    O 1 PEP -0.6728
 286 O286      167.4220   -6.0100    0.6990    O 1 PEP -0.6728
 287 C287      166.6460   -2.2190    0.3500   CB 1 PEP -0.0082
 288 C288      167.4030   -1.0100    0.2540   CB 1 PEP  0.0128
 289 C289      168.8130   -1.0630    0.2860   CB 1 PEP  0.0383
 290 C290      169.4620   -2.3290    0.3800   CA 1 PEP -0.1116
 291 S291      171.2610   -2.4790    0.3640    S 1 PEP  1.0878
 292 O292      171.6810   -1.8960   -0.9040    O 1 PEP -0.6788
 293 O293      171.7270   -1.7220    1.5170    O 1 PEP -0.6788
 294 O294      171.5300   -3.9030    0.4610    O 1 PEP -0.6788
 295 C295      166.7460    0.2690    0.0920   CB 1 PEP -0.0072
 296 C296      167.4710    1.4260    0.0070   CB 1 PEP  0.0429
 297 C297      168.8900    1.3510    0.0860   CA 1 PEP -0.2370
 298 H298      169.4490    2.2650    0.0510   HA 1 PEP  0.1614
 299 C299      169.5320    0.1680    0.2140   CA 1 PEP -0.1411
 300 H300      170.6000    0.1430    0.2630   HA 1 PEP  0.1619
 301 C301      165.1330   -2.1680    0.3600   CT 1 PEP  0.0660
 302 H302      164.7790   -2.5170    1.3270   HC 1 PEP  0.0447
 303 H303      164.7510   -2.8920   -0.3500   HC 1 PEP  0.0447
 304 C304      164.5570   -0.8240    0.0680   CM 1 PEP -0.1695
 305 H305      163.4910   -0.7860   -0.0680   HA 1 PEP  0.0927
 306 C306      165.2730    0.2860   -0.0400   CB 1 PEP -0.0120
 307 C307      164.6540    1.5870   -0.3420   CM 1 PEP  0.1029
 308 C308      165.3480    2.6960   -0.5080   CM 1 PEP -0.2159
 309 H309      164.8740    3.6270   -0.7430   HA 1 PEP  0.1115
 310 C310      166.8290    2.7700   -0.2980   CT 1 PEP  0.0209
 311 H311      167.2870    3.1570   -1.2060   H1 1 PEP  0.0167
 312 S312      167.1380    4.1460    0.8730    S 1 PEP  1.2019
 313 O313      166.5840    3.7420    2.1510    O 1 PEP -0.7023
 314 O314      168.5780    4.3520    0.8740    O 1 PEP -0.7023
 315 O315      166.4130    5.2510    0.2460    O 1 PEP -0.7023
 316 O316      163.2860    1.5230   -0.4500   OS 1 PEP -0.3338
 317 C317      162.5380    2.6930   -0.4160   CT 1 PEP  0.0235
 318 H318      162.5240    3.1950   -1.3770   H1 1 PEP  0.0740
 319 H319      162.9250    3.3880    0.3220   H1 1 PEP  0.0740
 320 C320      161.1030    2.3690   -0.0380    C 1 PEP  0.6111
 321 O321      160.2070    3.1450   -0.2760    O 1 PEP -0.6515
 322 N322      160.9300    1.2090    0.6160    N 1 PEP -0.4484
 323 H323      161.7290    0.6250    0.7160    H 1 PEP  0.3271
 324 C324      159.6400    0.7530    1.0720   CT 1 PEP -0.0653
 325 H325      159.8010    0.1100    1.9310   H1 1 PEP  0.0837
 326 H326      159.0750    1.6140    1.4060   H1 1 PEP  0.0837
 327 C327      158.8490    0.0000    0.0000   CT 1 PEP -0.0392
 328 H328      158.7140    0.6580   -0.8520   HC 1 PEP  0.0302
 329 H329      159.4350   -0.8490   -0.3420   HC 1 PEP  0.0302
@<TRIPOS>BOND
    1     7     8 1
    2     4     5 1
    3     4     6 1
    4     4     7 1
    5     1     2 1
    6     1     3 1
    7     1     4 1
    8    14    15 1
    9    11    12 1
   10    11    13 1
   11    11    14 1
   12     8     9 1
   13     8    10 1
   14     8    11 1
   15    21    22 1
   16    18    19 1
   17    18    20 1
   18    18    21 1
   19    15    16 1
   20    15    17 1
   21    15    18 1
   22    28    29 1
   23    25    26 1
   24    25    27 1
   25    25    28 1
   26    22    23 1
   27    22    24 1
   28    22    25 1
   29    35    36 1
   30    32    33 1
   31    32    34 1
   32    32    35 1
   33    29    30 1
   34    29    31 1
   35    29    32 1
   36    42    43 1
   37    39    40 1
   38    39    41 1
   39    39    42 1
   40    36    37 1
   41    36    38 1
   42    36    39 1
   43    49    50 1
   44    46    47 1
   45    46    48 1
   46    46    49 1
   47    43    44 1
   48    43    45 1
   49    43    46 1
   50    56    57 1
   51    53    54 1
   52    53    55 1
   53    53    56 1
   54    50    51 1
   55    50    52 1
   56    50    53 1
   57    63    64 1
   58    60    61 1
   59    60    62 1
   60    60    63 1
   61    57    58 1
   62    57    59 1
   63    57    60 1
   64    70    71 1
   65    67    68 1
   66    67    69 1
   67    67    70 1
   68    64    65 1
   69    64    66 1
   70    64    67 1
   71    77    78 1
   72    74    75 1
   73    74    76 1
   74    74    77 1
   75    71    72 1
   76    71    73 1
   77    71    74 1
   78    84    85 1
   79    81    82 1
   80    81    83 1
   81    81    84 1
   82    78    79 1
   83    78    80 1
   84    78    81 1
   85    91    92 1
   86    88    89 1
   87    88    90 1
   88    88    91 1
   89    85    86 1
   90    85    87 1
   91    85    88 1
   92    98    99 1
   93    95    96 1
   94    95    97 1
   95    95    98 1
   96    92    93 1
   97    92    94 1
   98    92    95 1
   99   105   106 1
  100   102   103 1
  101   102   104 1
  102   102   105 1
  103    99   100 1
  104    99   101 1
  105    99   102 1
  106   112   113 1
  107   109   110 1
  108   109   111 1
  109   109   112 1
  110   106   107 1
  111   106   108 1
  112   106   109 1
  113   119   120 1
  114   116   117 1
  115   116   118 1
  116   116   119 1
  117   113   114 1
  118   113   115 1
  119   113   116 1
  120   126   127 1
  121   123   124 1
  122   123   125 1
  123   123   126 1
  124   120   121 1
  125   120   122 1
  126   120   123 1
  127   133   134 1
  128   130   131 1
  129   130   132 1
  130   130   133 1
  131   127   128 1
  132   127   129 1
  133   127   130 1
  134   140   141 1
  135   137   138 1
  136   137   139 1
  137   137   140 1
  138   134   135 1
  139   134   136 1
  140   134   137 1
  141   147   148 1
  142   144   145 1
  143   144   146 1
  144   144   147 1
  145   141   142 1
  146   141   143 1
  147   141   144 1
  148   154   155 1
  149   151   152 1
  150   151   153 1
  151   151   154 1
  152   148   149 1
  153   148   150 1
  154   148   151 1
  155   161   162 1
  156   158   159 1
  157   158   160 1
  158   158   161 1
  159   155   156 1
  160   155   157 1
  161   155   158 1
  162   168   169 1
  163   165   166 1
  164   165   167 1
  165   165   168 1
  166   162   163 1
  167   162   164 1
  168   162   165 1
  169   175   176 1
  170   172   173 1
  171   172   174 1
  172   172   175 1
  173   169   170 1
  174   169   171 1
  175   169   172 1
  176   182   183 1
  177   179   180 1
  178   179   181 1
  179   179   182 1
  180   176   177 1
  181   176   178 1
  182   176   179 1
  183   189   190 1
  184   186   187 1
  185   186   188 1
  186   186   189 1
  187   183   184 1
  188   183   185 1
  189   183   186 1
  190   196   197 1
  191   193   194 1
  192   193   195 1
  193   193   196 1
  194   190   191 1
  195   190   192 1
  196   190   193 1
  197   203   204 1
  198   200   201 1
  199   200   202 1
  200   200   203 1
  201   197   198 1
  202   197   199 1
  203   197   200 1
  204   210   211 1
  205   207   208 1
  206   207   209 1
  207   207   210 1
  208   204   205 1
  209   204   206 1
  210   204   207 1
  211   217   218 1
  212   214   215 1
  213   214   216 1
  214   214   217 1
  215   211   212 1
  216   211   213 1
  217   211   214 1
  218   224   225 1
  219   221   222 1
  220   221   223 1
  221   221   224 1
  222   218   219 1
  223   218   220 1
  224   218   221 1
  225   231   232 1
  226   228   229 1
  227   228   230 1
  228   228   231 1
  229   225   226 1
  230   225   227 1
  231   225   228 1
  232   238   239 1
  233   235   236 1
  234   235   237 1
  235   235   238 1
  236   232   233 1
  237   232   234 1
  238   232   235 1
  239   245   246 1
  240   242   243 1
  241   242   244 1
  242   242   245 1
  243   239   240 1
  244   239   241 1
  245   239   242 1
  246   252   253 1
  247   249   250 1
  248   249   251 1
  249   249   252 1
  250   246   247 1
  251   246   248 1
  252   246   249 1
  253   259   260 1
  254   256   257 1
  255   256   258 1
  256   256   259 1
  257   253   254 1
  258   253   255 1
  259   253   256 1
  260   266   267 1
  261   263   264 1
  262   263   265 1
  263   263   266 1
  264   260   261 1
  265   260   262 1
  266   260   263 1
  267   273   274 1
  268   270   271 1
  269   270   272 1
  270   270   273 1
  271   267   268 1
  272   267   269 1
  273   267   270 1
  274   280   328 1
  275   277   278 1
  276   277   279 1
  277   277   280 1
  278   274   275 1
  279   274   276 1
  280   274   277 1
  281   328   329 1
  282   328   330 1
  283   325   326 1
  284   325   327 1
  285   325   328 1
  286   323   324 1
  287   323   325 1
  288   321   322 1
  289   321   323 1
  290   318   319 1
  291   318   320 1
  292   318   321 1
  293   317   318 1
  294   313   314 1
  295   313   315 1
  296   313   316 1
  297   311   312 1
  298   311   313 1
  299   309   310 1
  300   309   311 1
  301   308   309 1
  302   308   317 1
  303   307   308 1
  304   305   306 1
  305   305   307 1
  306   302   303 1
  307   302   304 1
  308   302   305 1
  309   300   301 1
  310   298   299 1
  311   298   300 1
  312   297   298 1
  313   297   311 1
  314   296   297 1
  315   296   307 1
  316   292   293 1
  317   292   294 1
  318   292   295 1
  319   291   292 1
  320   290   291 1
  321   290   300 1
  322   289   290 1
  323   289   296 1
  324   288   289 1
  325   288   302 1
  326   284   285 1
  327   284   286 1
  328   284   287 1
  329   283   284 1
  330   283   288 1
  331   281   282 1
  332   281   283 1
  333   281   291 1
@<TRIPOS>SUBSTRUCTURE
	1	PEP		1 ****		0
@<TRIPOS>RESIDUECONNECT
1 C0