@<TRIPOS>MOLECULE
MOL
   38    37     1     0     0
SMALL
resp


@<TRIPOS>ATOM
      1 S1           9.2870    -0.5660    -0.0000 s          1 MOL      -1.012651
      2 C1           7.7810     0.4760    -0.0000 c3         1 MOL      -0.036356
      3 C2           6.4750    -0.3280    -0.0000 c3         1 MOL       0.066975
      4 C3           5.2110     0.5530    -0.0000 c3         1 MOL       0.037174
      5 C4           3.9090    -0.2680    -0.0000 c3         1 MOL       0.033007
      6 C5           2.6470     0.6120    -0.0000 c3         1 MOL       0.023695
      7 C6           1.3460    -0.2090    -0.0000 c3         1 MOL       0.018839
      8 C7           0.0810     0.6690    -0.0000 c3         1 MOL       0.015198
      9 C8          -1.2180    -0.1570    -0.0000 c3         1 MOL       0.023537
     10 C9          -2.4870     0.7150    -0.0000 c3         1 MOL       0.014112
     11 C10         -3.7840    -0.1190    -0.0000 c3         1 MOL       0.044725
     12 C11         -5.0660     0.7400    -0.0000 c3         1 MOL      -0.101531
     13 P1          -6.6890    -0.2470    -0.0000 p5         1 MOL       1.173741
     14 O1          -7.7470     0.8720    -0.0000 o          1 MOL      -0.959318
     15 O2          -6.5870    -1.0610    -1.3020 o          1 MOL      -0.959318
     16 O3          -6.5870    -1.0610     1.3030 o          1 MOL      -0.959318
     17 H1           7.7940     1.1350    -0.8680 h1         1 MOL       0.030413
     18 H2           7.7940     1.1350     0.8680 h1         1 MOL       0.030413
     19 H3           6.4730    -0.9840     0.8710 hc         1 MOL      -0.006737
     20 H4           6.4730    -0.9840    -0.8710 hc         1 MOL      -0.006737
     21 H5           5.2290     1.2070    -0.8730 hc         1 MOL      -0.038671
     22 H6           5.2290     1.2070     0.8730 hc         1 MOL      -0.038671
     23 H7           3.8960    -0.9230     0.8720 hc         1 MOL      -0.025782
     24 H8           3.8960    -0.9230    -0.8720 hc         1 MOL      -0.025782
     25 H9           2.6630     1.2670    -0.8730 hc         1 MOL      -0.021315
     26 H10          2.6630     1.2670     0.8730 hc         1 MOL      -0.021315
     27 H11          1.3290    -0.8640     0.8720 hc         1 MOL      -0.015845
     28 H12          1.3290    -0.8640    -0.8720 hc         1 MOL      -0.015845
     29 H13          0.0910     1.3240    -0.8730 hc         1 MOL      -0.023509
     30 H14          0.0910     1.3240     0.8730 hc         1 MOL      -0.023509
     31 H15         -1.2360    -0.8120    -0.8720 hc         1 MOL      -0.021964
     32 H16         -1.2360    -0.8120     0.8720 hc         1 MOL      -0.021964
     33 H17         -2.4830     1.3680     0.8730 hc         1 MOL      -0.031975
     34 H18         -2.4830     1.3680    -0.8730 hc         1 MOL      -0.031975
     35 H19         -3.8110    -0.7760    -0.8700 hc         1 MOL      -0.008535
     36 H20         -3.8110    -0.7760     0.8700 hc         1 MOL      -0.008535
     37 H21         -5.0730     1.3900     0.8720 hc         1 MOL      -0.047334
     38 H22         -5.0730     1.3900    -0.8720 hc         1 MOL      -0.047334
@<TRIPOS>BOND
     1     1     2 1   
     2     2     3 1   
     3     2    17 1   
     4     2    18 1   
     5     3     4 1   
     6     3    19 1   
     7     3    20 1   
     8     4     5 1   
     9     4    21 1   
    10     4    22 1   
    11     5     6 1   
    12     5    23 1   
    13     5    24 1   
    14     6     7 1   
    15     6    25 1   
    16     6    26 1   
    17     7     8 1   
    18     7    27 1   
    19     7    28 1   
    20     8     9 1   
    21     8    29 1   
    22     8    30 1   
    23     9    10 1   
    24     9    31 1   
    25     9    32 1   
    26    10    11 1   
    27    10    33 1   
    28    10    34 1   
    29    11    12 1   
    30    11    35 1   
    31    11    36 1   
    32    12    13 1   
    33    12    37 1   
    34    12    38 1   
    35    13    14 1   
    36    13    15 1   
    37    13    16 1   
@<TRIPOS>SUBSTRUCTURE
     1 MOL         1 TEMP              0 ****  ****    0 ROOT
