@<TRIPOS>MOLECULE
MOL
   39    38     1     0     0
SMALL
resp


@<TRIPOS>ATOM
      1 S1          -9.1270    -0.6040    -0.0000 sh         1 MOL      -0.391200
      2 C1          -7.6980     0.5130    -0.0000 c3         1 MOL      -0.158588
      3 C2          -6.4080    -0.3230    -0.0000 c3         1 MOL       0.016980
      4 C3          -5.1400     0.5500    -0.0000 c3         1 MOL      -0.042598
      5 C4          -3.8430    -0.2780    -0.0000 c3         1 MOL      -0.003395
      6 C5          -2.5830     0.6040    -0.0000 c3         1 MOL       0.033389
      7 C6          -1.2810    -0.2160    -0.0000 c3         1 MOL       0.016836
      8 C7          -0.0220     0.6680    -0.0000 c3         1 MOL       0.005556
      9 C8           1.2780    -0.1530    -0.0000 c3         1 MOL       0.013995
     10 C9           2.5440     0.7240    -0.0000 c3         1 MOL       0.018810
     11 C10          3.8410    -0.1100    -0.0000 c3         1 MOL       0.032616
     12 C11          5.1240     0.7470    -0.0000 c3         1 MOL      -0.104170
     13 P1           6.7390    -0.2470    -0.0000 p5         1 MOL       1.172435
     14 O1           7.8010     0.8660    -0.0000 o          1 MOL      -0.954853
     15 O2           6.6290    -1.0620     1.3030 o          1 MOL      -0.954853
     16 O3           6.6290    -1.0620    -1.3030 o          1 MOL      -0.954853
     17 H1         -10.0670     0.3460    -0.0000 hs         1 MOL       0.202959
     18 H2          -7.7470     1.1560     0.8800 h1         1 MOL       0.095337
     19 H3          -7.7470     1.1560    -0.8800 h1         1 MOL       0.095337
     20 H4          -6.3980    -0.9780    -0.8730 hc         1 MOL       0.063321
     21 H5          -6.3980    -0.9780     0.8730 hc         1 MOL       0.063321
     22 H6          -5.1490     1.2050     0.8730 hc         1 MOL       0.012292
     23 H7          -5.1490     1.2050    -0.8730 hc         1 MOL       0.012292
     24 H8          -3.8260    -0.9330    -0.8730 hc         1 MOL      -0.011036
     25 H9          -3.8260    -0.9330     0.8730 hc         1 MOL      -0.011036
     26 H10         -2.5940     1.2590     0.8730 hc         1 MOL      -0.012987
     27 H11         -2.5940     1.2590    -0.8730 hc         1 MOL      -0.012987
     28 H12         -1.2590    -0.8710    -0.8730 hc         1 MOL      -0.007233
     29 H13         -1.2590    -0.8710     0.8730 hc         1 MOL      -0.007233
     30 H14         -0.0320     1.3230     0.8730 hc         1 MOL      -0.017666
     31 H15         -0.0320     1.3230    -0.8730 hc         1 MOL      -0.017666
     32 H16          1.3010    -0.8080     0.8730 hc         1 MOL      -0.016930
     33 H17          1.3010    -0.8080    -0.8720 hc         1 MOL      -0.016930
     34 H18          2.5400     1.3770    -0.8730 hc         1 MOL      -0.029410
     35 H19          2.5400     1.3770     0.8730 hc         1 MOL      -0.029410
     36 H20          3.8680    -0.7680     0.8700 hc         1 MOL      -0.006116
     37 H21          3.8680    -0.7680    -0.8700 hc         1 MOL      -0.006116
     38 H22          5.1350     1.3960    -0.8730 hc         1 MOL      -0.044105
     39 H23          5.1350     1.3960     0.8730 hc         1 MOL      -0.044105
@<TRIPOS>BOND
     1     1     2 1   
     2     1    17 1   
     3     2     3 1   
     4     2    18 1   
     5     2    19 1   
     6     3     4 1   
     7     3    20 1   
     8     3    21 1   
     9     4     5 1   
    10     4    22 1   
    11     4    23 1   
    12     5     6 1   
    13     5    24 1   
    14     5    25 1   
    15     6     7 1   
    16     6    26 1   
    17     6    27 1   
    18     7     8 1   
    19     7    28 1   
    20     7    29 1   
    21     8     9 1   
    22     8    30 1   
    23     8    31 1   
    24     9    10 1   
    25     9    32 1   
    26     9    33 1   
    27    10    11 1   
    28    10    34 1   
    29    10    35 1   
    30    11    12 1   
    31    11    36 1   
    32    11    37 1   
    33    12    13 1   
    34    12    38 1   
    35    12    39 1   
    36    13    14 1   
    37    13    15 1   
    38    13    16 1   
@<TRIPOS>SUBSTRUCTURE
     1 MOL         1 TEMP              0 ****  ****    0 ROOT
