@<TRIPOS>MOLECULE
LF1_0
	77	76	1
SMALL
USER_CHARGES
@<TRIPOS>ATOM
   1   C1       17.2097    0.0596    0.0001   CT 1 LF1 -0.0293
   2   H1       17.2511    0.7113   -0.8702   HC 1 LF1  0.0078
   3   H2       17.2511    0.7112    0.8704   HC 1 LF1  0.0078
   4   C3       15.8824   -0.7010    0.0000   CT 1 LF1 -0.0070
   5   H4       15.8435   -1.3538    0.8707   HC 1 LF1  0.0085
   6   H5       15.8436   -1.3537   -0.8707   HC 1 LF1  0.0085
   7   C4       14.6579    0.2160    0.0000   CT 1 LF1 -0.0288
   8   H6       14.6978    0.8685    0.8707   HC 1 LF1  0.0084
   9   H7       14.6978    0.8685   -0.8706   HC 1 LF1  0.0084
  10   C5       13.3311   -0.5456    0.0000   CT 1 LF1  0.0162
  11   H8       13.2913   -1.1981   -0.8706   HC 1 LF1  0.0050
  12   H9       13.2913   -1.1982    0.8706   HC 1 LF1  0.0050
  13   C6       12.1066    0.3716    0.0000   CT 1 LF1  0.0032
  14  H10       12.1464    1.0241    0.8707   HC 1 LF1 -0.0103
  15  H11       12.1464    1.0242   -0.8706   HC 1 LF1 -0.0103
  16   C7       10.7799   -0.3901   -0.0000   CT 1 LF1  0.0023
  17  H12       10.7400   -1.0425   -0.8707   HC 1 LF1 -0.0075
  18  H13       10.7400   -1.0426    0.8706   HC 1 LF1 -0.0075
  19   C8        9.5555    0.5272    0.0000   CT 1 LF1  0.0187
  20  H14        9.5953    1.1797   -0.8707   HC 1 LF1  0.0061
  21  H15        9.5953    1.1796    0.8707   HC 1 LF1  0.0061
  22   C9        8.2292   -0.2349   -0.0000   CT 1 LF1  0.0140
  23  H16        8.1884   -0.8870   -0.8707   HC 1 LF1 -0.0036
  24  H17        8.1884   -0.8870    0.8706   HC 1 LF1 -0.0036
  25  C10        7.0052    0.6829   -0.0000   CT 1 LF1  0.0040
  26  H18        7.0469    1.3348    0.8710   HC 1 LF1 -0.0164
  27  H19        7.0469    1.3349   -0.8710   HC 1 LF1 -0.0164
  28  C11        5.6826   -0.0853   -0.0000   CT 1 LF1  0.0415
  29  H20        5.6254   -0.7312   -0.8719   HC 1 LF1  0.0019
  30  H21        5.6254   -0.7312    0.8718   HC 1 LF1  0.0019
  31  C12        4.4711    0.8309   -0.0000   CT 1 LF1  0.0858
  32  H22        4.4826    1.4772    0.8776   H1 1 LF1  0.0428
  33  H23        4.4826    1.4773   -0.8776   H1 1 LF1  0.0428
  34   O1        3.3141    0.0466   -0.0000   OS 1 LF1 -0.3895
  35  C13        2.1208    0.7662   -0.0000   CT 1 LF1  0.1018
  36  H24        2.0488    1.4037    0.8789   H1 1 LF1  0.0321
  37  H25        2.0488    1.4038   -0.8789   H1 1 LF1  0.0321
  38  C14        0.9822   -0.2323   -0.0001   CT 1 LF1  0.1530
  39  H26        1.0521   -0.8689   -0.8791   H1 1 LF1  0.0381
  40  H27        1.0521   -0.8690    0.8789   H1 1 LF1  0.0381
  41   O2       -0.2142    0.4867   -0.0000   OS 1 LF1 -0.3942
  42  C15       -1.3677   -0.2977   -0.0001   CT 1 LF1  0.0898
  43  H28       -1.4029   -0.9373   -0.8791   H1 1 LF1  0.0368
  44  H29       -1.4029   -0.9374    0.8789   H1 1 LF1  0.0368
  45  C16       -2.5588    0.6375   -0.0000   CT 1 LF1  0.0991
  46  H30       -2.5238    1.2770   -0.8791   H1 1 LF1  0.0484
  47  H31       -2.5238    1.2770    0.8791   H1 1 LF1  0.0484
  48   O3       -3.7131   -0.1465   -0.0000   OS 1 LF1 -0.3298
  49  C17       -4.9087    0.5725   -0.0000   CT 1 LF1  0.0196
  50  H32       -4.9793    1.2091    0.8791   H1 1 LF1  0.0555
  51  H33       -4.9793    1.2092   -0.8790   H1 1 LF1  0.0555
  52  C18       -6.0459   -0.4274   -0.0001   CT 1 LF1  0.1168
  53  H34       -5.9755   -1.0640   -0.8791   H1 1 LF1  0.0440
  54  H35       -5.9755   -1.0640    0.8790   H1 1 LF1  0.0440
  55   O4       -7.2417    0.2916   -0.0000   OS 1 LF1 -0.3694
  56  C19       -8.3959   -0.4925   -0.0000   CT 1 LF1  0.0878
  57  H36       -8.4310   -1.1320    0.8790   H1 1 LF1  0.0506
  58  H37       -8.4310   -1.1320   -0.8791   H1 1 LF1  0.0506
  59  C20       -9.5866    0.4430    0.0000   CT 1 LF1  0.0657
  60  H38       -9.5514    1.0825    0.8791   H1 1 LF1  0.0570
  61  H39       -9.5514    1.0826   -0.8790   H1 1 LF1  0.0570
  62   O5      -10.7407   -0.3410   -0.0000   OS 1 LF1 -0.3811
  63  C21      -11.9365    0.3780    0.0000   CT 1 LF1  0.1066
  64  H40      -12.0069    1.0146    0.8791   H1 1 LF1  0.0507
  65  H41      -12.0069    1.0146   -0.8790   H1 1 LF1  0.0507
  66  C22      -13.0740   -0.6217    0.0000   CT 1 LF1  0.1059
  67  H42      -13.0036   -1.2583   -0.8790   H1 1 LF1  0.0443
  68  H43      -13.0035   -1.2584    0.8790   H1 1 LF1  0.0443
  69   O6      -14.2693    0.0978    0.0000   OS 1 LF1 -0.4016
  70  C23      -15.4239   -0.6863    0.0000   CT 1 LF1  0.0817
  71  H44      -15.4597   -1.3256   -0.8791   H1 1 LF1  0.0560
  72  H45      -15.4597   -1.3257    0.8791   H1 1 LF1  0.0560
  73  C24      -16.6157    0.2469    0.0001   CT 1 LF1  0.2205
  74  H46      -16.5738    0.8840    0.8794   H1 1 LF1  0.0113
  75  H47      -16.5738    0.8841   -0.8792   H1 1 LF1  0.0113
  76   O7      -17.7670   -0.5540    0.0001   OH 1 LF1 -0.6644
  77  H48      -18.5383   -0.0059    0.0001   HO 1 LF1  0.4261
@<TRIPOS>BOND
    1     1     2  1
    2     1     3  1
    3     1     4  1
    4     4     5  1
    5     4     6  1
    6     4     7  1
    7     7     8  1
    8     7     9  1
    9     7    10  1
   10    10    11  1
   11    10    12  1
   12    10    13  1
   13    13    14  1
   14    13    15  1
   15    13    16  1
   16    16    17  1
   17    16    18  1
   18    16    19  1
   19    19    20  1
   20    19    21  1
   21    19    22  1
   22    22    23  1
   23    22    24  1
   24    22    25  1
   25    25    26  1
   26    25    27  1
   27    25    28  1
   28    28    29  1
   29    28    30  1
   30    28    31  1
   31    31    32  1
   32    31    33  1
   33    31    34  1
   34    34    35  1
   35    35    36  1
   36    35    37  1
   37    35    38  1
   38    38    39  1
   39    38    40  1
   40    38    41  1
   41    41    42  1
   42    42    43  1
   43    42    44  1
   44    42    45  1
   45    45    46  1
   46    45    47  1
   47    45    48  1
   48    48    49  1
   49    49    50  1
   50    49    51  1
   51    49    52  1
   52    52    53  1
   53    52    54  1
   54    52    55  1
   55    55    56  1
   56    56    57  1
   57    56    58  1
   58    56    59  1
   59    59    60  1
   60    59    61  1
   61    59    62  1
   62    62    63  1
   63    63    64  1
   64    63    65  1
   65    63    66  1
   66    66    67  1
   67    66    68  1
   68    66    69  1
   69    69    70  1
   70    70    71  1
   71    70    72  1
   72    70    73  1
   73    73    74  1
   74    73    75  1
   75    73    76  1
   76    76    77  1
@<TRIPOS>SUBSTRUCTURE
	1 LF1			1 ****			0 ****  ****
@<TRIPOS>RESIDUECONNECT
1 C1 0 0 0 0 0
