@<TRIPOS>MOLECULE
TCA
	14	14	1
SMALL
USER_CHARGES
@<TRIPOS>ATOM
   1   C1        2.6297    0.0001   -0.0060   CA 1 TCA  0.0393
   2   C2        1.9151    1.1915   -0.0177   CA 1 TCA -0.1839
   3   H1        2.4459    2.1298   -0.0227   HA 1 TCA  0.1096
   4   C3        0.5296    1.1940   -0.0310   CA 1 TCA -0.1091
   5   H2       -0.0162    2.1179   -0.0578   HA 1 TCA  0.1359
   6   C4       -0.1738    0.0001   -0.0326   CA 1 TCA -0.0559
   7   S1       -1.9694   -0.0000    0.0087    S 1 TCA  1.1615
   8   O1       -2.3420    1.2215   -0.6817    O 1 TCA -0.6833
   9   O2       -2.3419   -1.2204   -0.6838    O 1 TCA -0.6833
  10   O3       -2.3009   -0.0012    1.4216    O 1 TCA -0.6833
  11   C5        0.5297   -1.1939   -0.0310   CA 1 TCA -0.1091
  12   H3       -0.0162   -2.1179   -0.0578   HA 1 TCA  0.1359
  13   C6        1.9151   -1.1915   -0.0177   CA 1 TCA -0.1839
  14   H4        2.4459   -2.1298   -0.0228   HA 1 TCA  0.1096
@<TRIPOS>BOND
    1     1     2  1
    2     1    13  1
    3     2     3  1
    4     2     4  1
    5     4     5  1
    6     4     6  1
    7     6     7  1
    8     6    11  1
    9     7     8  1
   10     7     9  1
   11     7    10  1
   12    11    12  1
   13    11    13  1
   14    13    14  1
@<TRIPOS>SUBSTRUCTURE
	1 TCA			1 ****			0 ****  ****
@<TRIPOS>RESIDUECONNECT
1 C1 0 0 0 0 0
