#
# Generated by PyRED version SEP-2015
#     http://q4md-forcefieldtools.org
#
@<TRIPOS>MOLECULE
LF2_0
    39    38     1     0     1
SMALL
USER_CHARGES
@<TRIPOS>ATOM
   1 C1    -7.148206   0.093972  -0.236493 CT   1   LF2 -0.0190  0.0000 ****
   2 H1    -7.305329  -0.933561   0.084289 HC   1   LF2  0.0094  0.0000 ****
   3 H2    -7.160209   0.078986  -1.324225 HC   1   LF2  0.0094  0.0000 ****
   4 C2    -5.777770   0.571111   0.247849 CT   1   LF2  0.0104  0.0000 ****
   5 H3    -5.767664   0.586737   1.336445 HC   1   LF2  0.0027  0.0000 ****
   6 H4    -5.622489   1.600081  -0.072587 HC   1   LF2  0.0027  0.0000 ****
   7 C3    -4.622833  -0.295925  -0.256535 CT   1   LF2  0.0066  0.0000 ****
   8 H5    -4.633065  -0.311303  -1.344990 HC   1   LF2 -0.0021  0.0000 ****
   9 H6    -4.778479  -1.324482   0.063943 HC   1   LF2 -0.0021  0.0000 ****
  10 C4    -3.253054   0.182125   0.228979 CT   1   LF2  0.0170  0.0000 ****
  11 H7    -3.241949   0.196827   1.317359 HC   1   LF2 -0.0068  0.0000 ****
  12 H8    -3.096525   1.210788  -0.091420 HC   1   LF2 -0.0068  0.0000 ****
  13 C5    -2.098765  -0.685700  -0.276063 CT   1   LF2  0.0173  0.0000 ****
  14 H9    -2.107928  -0.700233  -1.364385 HC   1   LF2 -0.0027  0.0000 ****
  15 H10   -2.254262  -1.714104   0.044058 HC   1   LF2 -0.0027  0.0000 ****
  16 C6    -0.729510  -0.207717   0.211348 CT   1   LF2  0.0130  0.0000 ****
  17 H11   -0.718343  -0.195119   1.299503 HC   1   LF2 -0.0053  0.0000 ****
  18 H12   -0.572709   0.821318  -0.108114 HC   1   LF2 -0.0053  0.0000 ****
  19 C7     0.423218  -1.076679  -0.295455 CT   1   LF2 -0.0025  0.0000 ****
  20 H13    0.417267  -1.088066  -1.383580 HC   1   LF2  0.0078  0.0000 ****
  21 H14    0.267614  -2.105218   0.022026 HC   1   LF2  0.0078  0.0000 ****
  22 C8     1.792022  -0.602017   0.198962 CT   1   LF2  0.0389  0.0000 ****
  23 H15    1.805354  -0.600544   1.286464 HC   1   LF2 -0.0015  0.0000 ****
  24 H16    1.936219   0.433602  -0.107009 HC   1   LF2 -0.0015  0.0000 ****
  25 C9     2.936089  -1.481210  -0.316449 CT   1   LF2 -0.0404  0.0000 ****
  26 H17    2.956973  -1.486342  -1.403726 HC   1   LF2  0.0489  0.0000 ****
  27 H18    2.764359  -2.508608  -0.013401 HC   1   LF2  0.0489  0.0000 ****
  28 C10    4.317513  -1.096585   0.208148 CT   1   LF2 -0.0762  0.0000 ****
  29 H19    5.049764  -1.829688  -0.110392 H1   1   LF2  0.1246  0.0000 ****
  30 H20    4.304326  -1.058649   1.291560 H1   1   LF2  0.1246  0.0000 ****
  31 N1     4.717564   0.223951  -0.307241 N2   1   LF2 -0.5234  0.0000 ****
  32 H21    4.092937   0.670053  -0.942588 H    1   LF2  0.3764  0.0000 ****
  33 C11    5.833828   0.855583  -0.013996 CA   1   LF2  0.7615  0.0000 ****
  34 N2     6.083676   2.051041  -0.537133 N2   1   LF2 -0.8466  0.0000 ****
  35 H22    6.928317   2.540757  -0.341712 H    1   LF2  0.4409  0.0000 ****
  36 H23    5.432440   2.501305  -1.140964 H    1   LF2  0.4409  0.0000 ****
  37 N3     6.723786   0.313062   0.804059 N2   1   LF2 -0.8466  0.0000 ****
  38 H24    7.564176   0.789250   1.046065 H    1   LF2  0.4409  0.0000 ****
  39 H25    6.583508  -0.586571   1.204767 H    1   LF2  0.4409  0.0000 ****
@<TRIPOS>BOND
    1     1     2 1
    2     1     3 1
    3     1     4 1
    4     4     5 1
    5     4     6 1
    6     4     7 1
    7     7     8 1
    8     7     9 1
    9     7    10 1
   10    10    11 1
   11    10    12 1
   12    10    13 1
   13    13    14 1
   14    13    15 1
   15    13    16 1
   16    16    17 1
   17    16    18 1
   18    16    19 1
   19    19    20 1
   20    19    21 1
   21    19    22 1
   22    22    23 1
   23    22    24 1
   24    22    25 1
   25    25    26 1
   26    25    27 1
   27    25    28 1
   28    28    29 1
   29    28    30 1
   30    28    31 1
   31    31    32 1
   32    31    33 1
   33    33    34 1
   34    33    37 1
   35    34    35 1
   36    34    36 1
   37    37    38 1
   38    37    39 1
@<TRIPOS>SUBSTRUCTURE
      1 LF2               1 ****               0 ****  ****
@<TRIPOS>HEADTAIL
C1 1
0 0
@<TRIPOS>RESIDUECONNECT
1 C1 0 0 0 0 0
