#
# Generated by PyRED version SEP-2015
#     http://q4md-forcefieldtools.org
#
@<TRIPOS>MOLECULE
LF3_0
    34    33     1     0     1
SMALL
USER_CHARGES
@<TRIPOS>ATOM
   1 C1    -7.541497  -0.596029   0.000017 CT   1   LF3 -0.0687  0.0000 ****
   2 H1    -7.512641  -1.248494   0.870275 HC   1   LF3  0.0025  0.0000 ****
   3 H20   -7.512641  -1.248560  -0.870192 HC   1   LF3  0.0025  0.0000 ****
   4 C2    -6.303398   0.302607  -0.000017 CT   1   LF3  0.0728  0.0000 ****
   5 H2    -6.335522   0.956052   0.870594 HC   1   LF3  0.0055  0.0000 ****
   6 H3    -6.335521   0.955986  -0.870678 HC   1   LF3  0.0055  0.0000 ****
   7 C3    -4.986720  -0.476287   0.000012 CT   1   LF3  0.0367  0.0000 ****
   8 H4    -4.956299  -1.129676  -0.870514 HC   1   LF3 -0.0199  0.0000 ****
   9 H5    -4.956299  -1.129611   0.870587 HC   1   LF3 -0.0199  0.0000 ****
  10 C4    -3.748827   0.422873  -0.000021 CT   1   LF3 -0.0046  0.0000 ****
  11 H6    -3.780123   1.076324   0.870561 HC   1   LF3 -0.0421  0.0000 ****
  12 H7    -3.780122   1.076258  -0.870652 HC   1   LF3 -0.0421  0.0000 ****
  13 C5    -2.431891  -0.356013   0.000009 CT   1   LF3  0.1058  0.0000 ****
  14 H8    -2.401567  -1.009559  -0.870417 HC   1   LF3 -0.0254  0.0000 ****
  15 H9    -2.401568  -1.009494   0.870484 HC   1   LF3 -0.0254  0.0000 ****
  16 C6    -1.193338   0.542397  -0.000024 CT   1   LF3  0.0472  0.0000 ****
  17 H10   -1.224979   1.196095   0.870613 HC   1   LF3 -0.0134  0.0000 ****
  18 H11   -1.224978   1.196030  -0.870710 HC   1   LF3 -0.0134  0.0000 ****
  19 C7     0.123804  -0.236335   0.000006 CT   1   LF3 -0.0214  0.0000 ****
  20 H12    0.154817  -0.889861  -0.870264 HC   1   LF3 -0.0246  0.0000 ****
  21 H13    0.154815  -0.889797   0.870326 HC   1   LF3 -0.0246  0.0000 ****
  22 C8     1.363619   0.660526  -0.000026 CT   1   LF3  0.0412  0.0000 ****
  23 H14    1.331258   1.314370   0.871035 HC   1   LF3 -0.0235  0.0000 ****
  24 H15    1.331261   1.314304  -0.871136 HC   1   LF3 -0.0235  0.0000 ****
  25 C9     2.676018  -0.127124   0.000005 CT   1   LF3  0.0909  0.0000 ****
  26 H16    2.718685  -0.772886  -0.871205 HC   1   LF3  0.0146  0.0000 ****
  27 H17    2.718682  -0.772821   0.871264 HC   1   LF3  0.0146  0.0000 ****
  28 C10    3.905000   0.775365  -0.000027 CT   1   LF3 -0.2693  0.0000 ****
  29 H18    3.919129   1.413523   0.877401 H1   1   LF3  0.0692  0.0000 ****
  30 H19    3.919132   1.413457  -0.877503 H1   1   LF3  0.0692  0.0000 ****
  31 S1     5.453153  -0.130513   0.000011 S    1   LF3  1.1869  0.0000 ****
  32 O1     5.416956  -0.924213   1.219978 O    1   LF3 -0.7011  0.0000 ****
  33 O2     5.416965  -0.924301  -1.219898 O    1   LF3 -0.7011  0.0000 ****
  34 O3     6.469825   0.909416  -0.000022 O    1   LF3 -0.7011  0.0000 ****
@<TRIPOS>BOND
    1     1     2 1
    2     1     3 1
    3     1     4 1
    4     4     5 1
    5     4     6 1
    6     4     7 1
    7     7     8 1
    8     7     9 1
    9     7    10 1
   10    10    11 1
   11    10    12 1
   12    10    13 1
   13    13    14 1
   14    13    15 1
   15    13    16 1
   16    16    17 1
   17    16    18 1
   18    16    19 1
   19    19    20 1
   20    19    21 1
   21    19    22 1
   22    22    23 1
   23    22    24 1
   24    22    25 1
   25    25    26 1
   26    25    27 1
   27    25    28 1
   28    28    29 1
   29    28    30 1
   30    28    31 1
   31    31    32 1
   32    31    33 1
   33    31    34 1
@<TRIPOS>SUBSTRUCTURE
      1 LF3               1 ****               0 ****  ****
@<TRIPOS>HEADTAIL
C1 1
0 0
@<TRIPOS>RESIDUECONNECT
1 C1 0 0 0 0 0
