#
# Generated by PyRED version APR-2018
#     http://q4md-forcefieldtools.org
#
@<TRIPOS>MOLECULE
MUS
    42    41     1     0     1
SMALL
USER_CHARGES
@<TRIPOS>ATOM
   1 C2     7.131272   0.379112  -0.000006 CT   1   MUS -0.1393  0.0000 ****
   2 H23    7.165421   1.016718  -0.876799 H1   1   MUS  0.0925  0.0000 ****
   3 H24    7.165415   1.016724   0.876782 H1   1   MUS  0.0925  0.0000 ****
   4 S2     8.598876  -0.695007   0.000004 S    1   MUS -0.2938  0.0000 ****
   5 C1     9.905948   0.554920   0.000035 CT   1   MUS -0.0703  0.0000 ****
   6 H1    10.855270   0.034899   0.000043 H1   1   MUS  0.0690  0.0000 ****
   7 H2     9.852080   1.178616  -0.883872 H1   1   MUS  0.0690  0.0000 ****
   8 H25    9.852054   1.178598   0.883954 H1   1   MUS  0.0690  0.0000 ****
   9 C3     5.847093  -0.449308  -0.000008 CT   1   MUS  0.0275  0.0000 ****
  10 H3     5.837705  -1.097867  -0.871890 HC   1   MUS  0.0353  0.0000 ****
  11 H4     5.837700  -1.097863   0.871876 HC   1   MUS  0.0353  0.0000 ****
  12 C4     4.594294   0.430526  -0.000014 CT   1   MUS  0.0054  0.0000 ****
  13 H5     4.612828   1.083052   0.871116 HC   1   MUS -0.0062  0.0000 ****
  14 H6     4.612830   1.083045  -0.871149 HC   1   MUS -0.0062  0.0000 ****
  15 C5     3.293567  -0.375133  -0.000012 CT   1   MUS  0.0278  0.0000 ****
  16 H7     3.275593  -1.028239  -0.870715 HC   1   MUS -0.0141  0.0000 ****
  17 H8     3.275593  -1.028234   0.870694 HC   1   MUS -0.0141  0.0000 ****
  18 C6     2.041306   0.503885  -0.000014 CT   1   MUS  0.0228  0.0000 ****
  19 H9     2.062247   1.157577   0.870653 HC   1   MUS -0.0118  0.0000 ****
  20 H10    2.062246   1.157571  -0.870686 HC   1   MUS -0.0118  0.0000 ****
  21 C7     0.736609  -0.295236  -0.000010 CT   1   MUS  0.0294  0.0000 ****
  22 H11    0.715860  -0.948902  -0.870530 HC   1   MUS -0.0116  0.0000 ****
  23 H12    0.715862  -0.948897   0.870513 HC   1   MUS -0.0116  0.0000 ****
  24 C8    -0.513933   0.586415  -0.000011 CT   1   MUS  0.0166  0.0000 ****
  25 H13   -0.490790   1.240421   0.870651 HC   1   MUS -0.0169  0.0000 ****
  26 H14   -0.490793   1.240416  -0.870677 HC   1   MUS -0.0169  0.0000 ****
  27 C9    -1.821096  -0.208838  -0.000006 CT   1   MUS  0.0163  0.0000 ****
  28 H15   -1.844214  -0.862555  -0.870340 HC   1   MUS -0.0118  0.0000 ****
  29 H16   -1.844210  -0.862551   0.870332 HC   1   MUS -0.0118  0.0000 ****
  30 C10   -3.071114   0.673753  -0.000005 CT   1   MUS  0.0274  0.0000 ****
  31 H17   -3.046054   1.327887   0.871079 HC   1   MUS -0.0147  0.0000 ****
  32 H18   -3.046059   1.327882  -0.871093 HC   1   MUS -0.0147  0.0000 ****
  33 C11   -4.374739  -0.128218   0.000000 CT   1   MUS  0.0501  0.0000 ****
  34 H19   -4.410499  -0.774328  -0.871252 HC   1   MUS  0.0092  0.0000 ****
  35 H20   -4.410495  -0.774323   0.871256 HC   1   MUS  0.0092  0.0000 ****
  36 C12   -5.613133   0.761292   0.000001 CT   1   MUS -0.1773  0.0000 ****
  37 H21   -5.633955   1.399218   0.877466 H1   1   MUS  0.0452  0.0000 ****
  38 H22   -5.633959   1.399213  -0.877467 H1   1   MUS  0.0452  0.0000 ****
  39 S1    -7.151582  -0.160963   0.000007 S    1   MUS  1.1557  0.0000 ****
  40 O1    -8.179118   0.868175   0.000007 O    1   MUS -0.6985  0.0000 ****
  41 O2    -7.106745  -0.954189  -1.219939 O    1   MUS -0.6985  0.0000 ****
  42 O3    -7.106739  -0.954183   1.219957 O    1   MUS -0.6985  0.0000 ****
@<TRIPOS>BOND
    1     1     2 1
    2     1     3 1
    3     1     4 1
    4     1     9 1
    5     4     5 1
    6     5     6 1
    7     5     7 1
    8     5     8 1
    9     9    10 1
   10     9    11 1
   11     9    12 1
   12    12    13 1
   13    12    14 1
   14    12    15 1
   15    15    16 1
   16    15    17 1
   17    15    18 1
   18    18    19 1
   19    18    20 1
   20    18    21 1
   21    21    22 1
   22    21    23 1
   23    21    24 1
   24    24    25 1
   25    24    26 1
   26    24    27 1
   27    27    28 1
   28    27    29 1
   29    27    30 1
   30    30    31 1
   31    30    32 1
   32    30    33 1
   33    33    34 1
   34    33    35 1
   35    33    36 1
   36    36    37 1
   37    36    38 1
   38    36    39 1
   39    39    40 1
   40    39    41 1
   41    39    42 1
@<TRIPOS>SUBSTRUCTURE
      1 MUS               1 ****               0 ****  ****
@<TRIPOS>HEADTAIL
0 0
0 0
@<TRIPOS>RESIDUECONNECT
1 0 0 0 0 0 0
