#
# Generated by PyRED version APR-2018
#     http://q4md-forcefieldtools.org
#
@<TRIPOS>MOLECULE
TCA
    14    14     1     0     1
SMALL
USER_CHARGES
@<TRIPOS>ATOM
   1 C1     2.629727   0.000052  -0.005979 CA   1   TCA  0.0393  0.0000 ****
   2 C2     1.915126   1.191527  -0.017708 CA   1   TCA -0.1839  0.0000 ****
   3 H1     2.445925   2.129811  -0.022745 HA   1   TCA  0.1096  0.0000 ****
   4 C3     0.529639   1.193978  -0.031045 CA   1   TCA -0.1091  0.0000 ****
   5 H2    -0.016167   2.117941  -0.057802 HA   1   TCA  0.1359  0.0000 ****
   6 C4    -0.173753   0.000072  -0.032604 CA   1   TCA -0.0559  0.0000 ****
   7 S1    -1.969424  -0.000007   0.008706 S   1   TCA  1.1615  0.0000 ****
   8 O1    -2.342012   1.221485  -0.681740 O    1   TCA -0.6833  0.0000 ****
   9 O2    -2.341910  -1.220352  -0.683822 O    1   TCA -0.6833  0.0000 ****
  10 O3    -2.300947  -0.001244   1.421627 O    1   TCA -0.6833  0.0000 ****
  11 C5     0.529658  -1.193897  -0.031047 CA   1   TCA -0.1091  0.0000 ****
  12 H3    -0.016156  -2.117858  -0.057826 HA   1   TCA  0.1359  0.0000 ****
  13 C6     1.915079  -1.191469  -0.017707 CA   1   TCA -0.1839  0.0000 ****
  14 H4     2.445886  -2.129755  -0.022753 HA   1   TCA  0.1096  0.0000 ****
@<TRIPOS>BOND
    1     1     2 1
    2     1    13 1
    3     2     3 1
    4     2     4 1
    5     4     5 1
    6     4     6 1
    7     6     7 1
    8     6    11 1
    9     7     8 1
   10     7     9 1
   11     7    10 1
   12    11    12 1
   13    11    13 1
   14    13    14 1
@<TRIPOS>SUBSTRUCTURE
      1 TCA               1 ****               0 ****  ****
@<TRIPOS>HEADTAIL
C1 1
0 0
@<TRIPOS>RESIDUECONNECT
1 C1 0 0 0 0 0
