@<TRIPOS>MOLECULE
MET
    8     7     1     0     0
SMALL
resp


@<TRIPOS>ATOM
      1 C1           0.7700    -0.0000    -0.0000 CT         1 MET       0.000233
      2 C2          -0.7700    -0.0000     0.0000 CT         1 MET       0.000233
      3 H1           1.1330    -0.0090     1.0280 HC         1 MET      -0.000078
      4 H2           1.1340     0.8950    -0.5050 HC         1 MET      -0.000078
      5 H3           1.1340    -0.8850    -0.5220 HC         1 MET      -0.000078
      6 H4          -1.1330     0.0100    -1.0270 HC         1 MET      -0.000078
      7 H5          -1.1340    -0.8950     0.5050 HC         1 MET      -0.000078
      8 H6          -1.1340     0.8850     0.5210 HC         1 MET      -0.000078
@<TRIPOS>BOND
     1     1     2 1
     2     1     3 1
     3     1     4 1
     4     1     5 1
     5     2     6 1
     6     2     7 1
     7     2     8 1
@<TRIPOS>SUBSTRUCTURE
     1 MET         1 TEMP              0 ****  ****    0 ROOT
