#
# Generated by PyRED version NOV-2014
#     http://q4md-forcefieldtools.org
#
@<TRIPOS>MOLECULE
AUL
    1     0     0     0     0
SMALL
USER_CHARGES
@<TRIPOS>ATOM
   1 AUL    -3.426233   7.571441   3.054962 AUL   1   AUL   0.0000   0.0000 ****
@<TRIPOS>BOND
@<TRIPOS>SUBSTRUCTURE
      1 AUL               1 ****               0 ****  ****
@<TRIPOS>HEADTAIL
0 0
0 0
@<TRIPOS>RESIDUECONNECT
0 0 0 0 0 0 0
